version 2
run Default-0-20220415-03:08:10-50609
attr configname Default
attr datetime 20220415-03:08:10
attr experiment Default
attr inifile omnetpp.ini
attr iterationvars ""
attr iterationvarsf ""
attr measurement ""
attr network tls
attr processid 50609
attr repetition 0
attr replication #0
attr resultdir results
attr runnumber 0
attr seedset 0
param *.playgroundSizeX 5200m
param *.playgroundSizeY 2500m
param *.playgroundSizeZ 50m
param *.annotations.draw true
param *.manager.updateInterval 1s
param *.manager.host "\"localhost\""
param *.manager.port 9999
param *.manager.autoShutdown true
param *.manager.launchConfig "xmldoc(\"osm.launchd.xml\")"
param *.rsu[0].mobility.x 2200
param *.rsu[0].mobility.y 1150
param *.rsu[0].mobility.z 3
param *.rsu[*].applType "\"TraCIRSU\""
param *.rsu[*].appl.headerLength "80 bit"
param *.rsu[*].appl.sendBeacons false
param *.rsu[*].appl.dataOnSch false
param *.rsu[*].appl.beaconInterval 1s
param *.rsu[*].appl.beaconUserPriority 7
param *.rsu[*].appl.dataUserPriority 5
param *.rsu[*].nic.phy80211p.antennaOffsetZ "0 m"
param *.connectionManager.sendDirect true
param *.connectionManager.maxInterfDist 2600m
param *.connectionManager.drawMaxIntfDist false
param *.**.nic.mac1609_4.useServiceChannel false
param *.**.nic.mac1609_4.txPower 20mW
param *.**.nic.mac1609_4.bitrate 6Mbps
param *.**.nic.phy80211p.minPowerLevel -110dBm
param *.**.nic.phy80211p.useNoiseFloor true
param *.**.nic.phy80211p.noiseFloor -98dBm
param *.**.nic.phy80211p.decider "xmldoc(\"config.xml\")"
param *.**.nic.phy80211p.analogueModels "xmldoc(\"config.xml\")"
param *.**.nic.phy80211p.usePropagationDelay true
param *.**.nic.phy80211p.antenna "xmldoc(\"antenna.xml\", \"/root/Antenna[@id='monopole']\")"
param *.node[*].nic.phy80211p.antennaOffsetY "0 m"
param *.node[*].nic.phy80211p.antennaOffsetZ "1.895 m"
param *.node[*].applType "\"TraCIDemoEV\""
param *.node[*].appl.headerLength "80 bit"
param *.node[*].appl.sendBeacons false
param *.node[*].appl.dataOnSch false
param *.node[*].appl.beaconInterval 1s
param *.node[*].veinsmobility.x 0
param *.node[*].veinsmobility.y 0
param *.node[*].veinsmobility.z 0
param *.node[*].veinsmobility.setHostSpeed false
param *.node[*0].veinsmobility.accidentCount 0
param *.node[*0].veinsmobility.accidentStart 73s
param *.node[*0].veinsmobility.accidentDuration 50s

scalar tls.node[1].appl generatedWSMs 0
scalar tls.node[1].appl receivedWSMs 0
scalar tls.node[1].appl generatedBSMs 0
scalar tls.node[1].appl receivedBSMs 0
scalar tls.node[1].appl generatedWSAs 0
scalar tls.node[1].appl receivedWSAs 0
scalar tls.node[1].nic.phy80211p busyTime 0
scalar tls.node[1].nic.mac1609_4 ReceivedUnicastPackets 0
scalar tls.node[1].nic.mac1609_4 ReceivedBroadcasts 0
scalar tls.node[1].nic.mac1609_4 SentPackets 0
scalar tls.node[1].nic.mac1609_4 SentAcknowledgements 0
scalar tls.node[1].nic.mac1609_4 RetriesExceeded 0
scalar tls.node[1].nic.mac1609_4 SNIRLostPackets 0
scalar tls.node[1].nic.mac1609_4 RXTXLostPackets 0
scalar tls.node[1].nic.mac1609_4 TotalLostPackets 0
scalar tls.node[1].nic.mac1609_4 DroppedPacketsInMac 0
scalar tls.node[1].nic.mac1609_4 TooLittleTime 0
scalar tls.node[1].nic.mac1609_4 TimesIntoBackoff 0
scalar tls.node[1].nic.mac1609_4 SlotsBackoff 0
scalar tls.node[1].nic.mac1609_4 NumInternalContention 0
scalar tls.node[1].nic.mac1609_4 totalBusyTime 0
scalar tls.node[1].nic.mac1609_4 retriesExceeded:count 0
attr source org_car2x_veins_modules_mac_sigRetriesExceeded
scalar tls.node[1].nic.mac1609_4 sentAcks:count 0
attr source org_car2x_veins_modules_mac_sigSentAck
scalar tls.node[1].nic.mac1609_4 sentPackets:count 0
attr source org_car2x_veins_modules_mac_sigSentPacket
scalar tls.node[1].nic.mac1609_4 collisions:count 0
attr source org_car2x_veins_modules_mac_sigCollision
scalar tls.node[1].nic.mac1609_4 channelBusy:timeavg 0
attr source org_car2x_veins_modules_mac_sigChannelBusy
scalar tls.node[1].veinsmobility startTime 5
scalar tls.node[1].veinsmobility totalTime 61
scalar tls.node[1].veinsmobility stopTime 67
scalar tls.node[1].veinsmobility minSpeed 1.4771120201563
scalar tls.node[1].veinsmobility maxSpeed 14.52805132243
scalar tls.node[1].veinsmobility totalDistance 609.74482553911
scalar tls.node[1].veinsmobility totalCO2Emission 180.10377641783
scalar tls.node[6].appl generatedWSMs 0
scalar tls.node[6].appl receivedWSMs 0
scalar tls.node[6].appl generatedBSMs 0
scalar tls.node[6].appl receivedBSMs 0
scalar tls.node[6].appl generatedWSAs 0
scalar tls.node[6].appl receivedWSAs 0
scalar tls.node[6].nic.phy80211p busyTime 0
scalar tls.node[6].nic.mac1609_4 ReceivedUnicastPackets 0
scalar tls.node[6].nic.mac1609_4 ReceivedBroadcasts 0
scalar tls.node[6].nic.mac1609_4 SentPackets 0
scalar tls.node[6].nic.mac1609_4 SentAcknowledgements 0
scalar tls.node[6].nic.mac1609_4 RetriesExceeded 0
scalar tls.node[6].nic.mac1609_4 SNIRLostPackets 0
scalar tls.node[6].nic.mac1609_4 RXTXLostPackets 0
scalar tls.node[6].nic.mac1609_4 TotalLostPackets 0
scalar tls.node[6].nic.mac1609_4 DroppedPacketsInMac 0
scalar tls.node[6].nic.mac1609_4 TooLittleTime 0
scalar tls.node[6].nic.mac1609_4 TimesIntoBackoff 0
scalar tls.node[6].nic.mac1609_4 SlotsBackoff 0
scalar tls.node[6].nic.mac1609_4 NumInternalContention 0
scalar tls.node[6].nic.mac1609_4 totalBusyTime 0
scalar tls.node[6].nic.mac1609_4 retriesExceeded:count 0
attr source org_car2x_veins_modules_mac_sigRetriesExceeded
scalar tls.node[6].nic.mac1609_4 sentAcks:count 0
attr source org_car2x_veins_modules_mac_sigSentAck
scalar tls.node[6].nic.mac1609_4 sentPackets:count 0
attr source org_car2x_veins_modules_mac_sigSentPacket
scalar tls.node[6].nic.mac1609_4 collisions:count 0
attr source org_car2x_veins_modules_mac_sigCollision
scalar tls.node[6].nic.mac1609_4 channelBusy:timeavg 0
attr source org_car2x_veins_modules_mac_sigChannelBusy
scalar tls.node[6].veinsmobility startTime 25
scalar tls.node[6].veinsmobility totalTime 75
scalar tls.node[6].veinsmobility stopTime 101
scalar tls.node[6].veinsmobility minSpeed 2.5677312856671
scalar tls.node[6].veinsmobility maxSpeed 25.708937409284
scalar tls.node[6].veinsmobility totalDistance 930.76852925773
scalar tls.node[6].veinsmobility totalCO2Emission 326.08928719779
scalar tls.node[2].appl generatedWSMs 0
scalar tls.node[2].appl receivedWSMs 0
scalar tls.node[2].appl generatedBSMs 0
scalar tls.node[2].appl receivedBSMs 0
scalar tls.node[2].appl generatedWSAs 0
scalar tls.node[2].appl receivedWSAs 0
scalar tls.node[2].nic.phy80211p busyTime 0
scalar tls.node[2].nic.mac1609_4 ReceivedUnicastPackets 0
scalar tls.node[2].nic.mac1609_4 ReceivedBroadcasts 0
scalar tls.node[2].nic.mac1609_4 SentPackets 0
scalar tls.node[2].nic.mac1609_4 SentAcknowledgements 0
scalar tls.node[2].nic.mac1609_4 RetriesExceeded 0
scalar tls.node[2].nic.mac1609_4 SNIRLostPackets 0
scalar tls.node[2].nic.mac1609_4 RXTXLostPackets 0
scalar tls.node[2].nic.mac1609_4 TotalLostPackets 0
scalar tls.node[2].nic.mac1609_4 DroppedPacketsInMac 0
scalar tls.node[2].nic.mac1609_4 TooLittleTime 0
scalar tls.node[2].nic.mac1609_4 TimesIntoBackoff 0
scalar tls.node[2].nic.mac1609_4 SlotsBackoff 0
scalar tls.node[2].nic.mac1609_4 NumInternalContention 0
scalar tls.node[2].nic.mac1609_4 totalBusyTime 0
scalar tls.node[2].nic.mac1609_4 retriesExceeded:count 0
attr source org_car2x_veins_modules_mac_sigRetriesExceeded
scalar tls.node[2].nic.mac1609_4 sentAcks:count 0
attr source org_car2x_veins_modules_mac_sigSentAck
scalar tls.node[2].nic.mac1609_4 sentPackets:count 0
attr source org_car2x_veins_modules_mac_sigSentPacket
scalar tls.node[2].nic.mac1609_4 collisions:count 0
attr source org_car2x_veins_modules_mac_sigCollision
scalar tls.node[2].nic.mac1609_4 channelBusy:timeavg 0
attr source org_car2x_veins_modules_mac_sigChannelBusy
scalar tls.node[2].veinsmobility startTime 8
scalar tls.node[2].veinsmobility totalTime 94
scalar tls.node[2].veinsmobility stopTime 103
scalar tls.node[2].veinsmobility minSpeed 1.3721544130938
scalar tls.node[2].veinsmobility maxSpeed 28.602526169402
scalar tls.node[2].veinsmobility totalDistance 1997.5807326534
scalar tls.node[2].veinsmobility totalCO2Emission 517.89365162184
scalar tls.node[11].appl generatedWSMs 0
scalar tls.node[11].appl receivedWSMs 0
scalar tls.node[11].appl generatedBSMs 0
scalar tls.node[11].appl receivedBSMs 0
scalar tls.node[11].appl generatedWSAs 0
scalar tls.node[11].appl receivedWSAs 0
scalar tls.node[11].nic.phy80211p busyTime 0
scalar tls.node[11].nic.mac1609_4 ReceivedUnicastPackets 0
scalar tls.node[11].nic.mac1609_4 ReceivedBroadcasts 0
scalar tls.node[11].nic.mac1609_4 SentPackets 0
scalar tls.node[11].nic.mac1609_4 SentAcknowledgements 0
scalar tls.node[11].nic.mac1609_4 RetriesExceeded 0
scalar tls.node[11].nic.mac1609_4 SNIRLostPackets 0
scalar tls.node[11].nic.mac1609_4 RXTXLostPackets 0
scalar tls.node[11].nic.mac1609_4 TotalLostPackets 0
scalar tls.node[11].nic.mac1609_4 DroppedPacketsInMac 0
scalar tls.node[11].nic.mac1609_4 TooLittleTime 0
scalar tls.node[11].nic.mac1609_4 TimesIntoBackoff 0
scalar tls.node[11].nic.mac1609_4 SlotsBackoff 0
scalar tls.node[11].nic.mac1609_4 NumInternalContention 0
scalar tls.node[11].nic.mac1609_4 totalBusyTime 0
scalar tls.node[11].nic.mac1609_4 retriesExceeded:count 0
attr source org_car2x_veins_modules_mac_sigRetriesExceeded
scalar tls.node[11].nic.mac1609_4 sentAcks:count 0
attr source org_car2x_veins_modules_mac_sigSentAck
scalar tls.node[11].nic.mac1609_4 sentPackets:count 0
attr source org_car2x_veins_modules_mac_sigSentPacket
scalar tls.node[11].nic.mac1609_4 collisions:count 0
attr source org_car2x_veins_modules_mac_sigCollision
scalar tls.node[11].nic.mac1609_4 channelBusy:timeavg 0
attr source org_car2x_veins_modules_mac_sigChannelBusy
scalar tls.node[11].veinsmobility startTime 51
scalar tls.node[11].veinsmobility totalTime 55
scalar tls.node[11].veinsmobility stopTime 107
scalar tls.node[11].veinsmobility minSpeed 2.4687527578825
scalar tls.node[11].veinsmobility maxSpeed 25.99383422648
scalar tls.node[11].veinsmobility totalDistance 632.03826285138
scalar tls.node[11].veinsmobility totalCO2Emission 228.59889852694
scalar tls.node[0].appl generatedWSMs 0
scalar tls.node[0].appl receivedWSMs 0
scalar tls.node[0].appl generatedBSMs 0
scalar tls.node[0].appl receivedBSMs 0
scalar tls.node[0].appl generatedWSAs 0
scalar tls.node[0].appl receivedWSAs 0
scalar tls.node[0].nic.phy80211p busyTime 1.982905982906e-06
scalar tls.node[0].nic.mac1609_4 ReceivedUnicastPackets 0
scalar tls.node[0].nic.mac1609_4 ReceivedBroadcasts 0
scalar tls.node[0].nic.mac1609_4 SentPackets 0
scalar tls.node[0].nic.mac1609_4 SentAcknowledgements 0
scalar tls.node[0].nic.mac1609_4 RetriesExceeded 0
scalar tls.node[0].nic.mac1609_4 SNIRLostPackets 1
scalar tls.node[0].nic.mac1609_4 RXTXLostPackets 0
scalar tls.node[0].nic.mac1609_4 TotalLostPackets 1
scalar tls.node[0].nic.mac1609_4 DroppedPacketsInMac 0
scalar tls.node[0].nic.mac1609_4 TooLittleTime 0
scalar tls.node[0].nic.mac1609_4 TimesIntoBackoff 0
scalar tls.node[0].nic.mac1609_4 SlotsBackoff 0
scalar tls.node[0].nic.mac1609_4 NumInternalContention 0
scalar tls.node[0].nic.mac1609_4 totalBusyTime 0.000232
scalar tls.node[0].nic.mac1609_4 retriesExceeded:count 0
attr source org_car2x_veins_modules_mac_sigRetriesExceeded
scalar tls.node[0].nic.mac1609_4 sentAcks:count 0
attr source org_car2x_veins_modules_mac_sigSentAck
scalar tls.node[0].nic.mac1609_4 sentPackets:count 0
attr source org_car2x_veins_modules_mac_sigSentPacket
scalar tls.node[0].nic.mac1609_4 collisions:count 0
attr source org_car2x_veins_modules_mac_sigCollision
scalar tls.node[0].nic.mac1609_4 channelBusy:timeavg 1.982905982906e-06
attr source org_car2x_veins_modules_mac_sigChannelBusy
scalar tls.node[0].veinsmobility startTime 1
scalar tls.node[0].veinsmobility totalTime 116
scalar tls.node[0].veinsmobility stopTime 118
scalar tls.node[0].veinsmobility minSpeed 1.545720749555
scalar tls.node[0].veinsmobility maxSpeed 24.084191529483
scalar tls.node[0].veinsmobility totalDistance 1375.1328031764
scalar tls.node[0].veinsmobility totalCO2Emission 379.72538290115
scalar tls.node[19].appl generatedWSMs 0
scalar tls.node[19].appl receivedWSMs 0
scalar tls.node[19].appl generatedBSMs 0
scalar tls.node[19].appl receivedBSMs 0
scalar tls.node[19].appl generatedWSAs 0
scalar tls.node[19].appl receivedWSAs 0
scalar tls.node[19].nic.phy80211p busyTime 2.8121212121212e-05
scalar tls.node[19].nic.mac1609_4 ReceivedUnicastPackets 0
scalar tls.node[19].nic.mac1609_4 ReceivedBroadcasts 0
scalar tls.node[19].nic.mac1609_4 SentPackets 0
scalar tls.node[19].nic.mac1609_4 SentAcknowledgements 0
scalar tls.node[19].nic.mac1609_4 RetriesExceeded 0
scalar tls.node[19].nic.mac1609_4 SNIRLostPackets 8
scalar tls.node[19].nic.mac1609_4 RXTXLostPackets 0
scalar tls.node[19].nic.mac1609_4 TotalLostPackets 8
scalar tls.node[19].nic.mac1609_4 DroppedPacketsInMac 0
scalar tls.node[19].nic.mac1609_4 TooLittleTime 0
scalar tls.node[19].nic.mac1609_4 TimesIntoBackoff 0
scalar tls.node[19].nic.mac1609_4 SlotsBackoff 0
scalar tls.node[19].nic.mac1609_4 NumInternalContention 0
scalar tls.node[19].nic.mac1609_4 totalBusyTime 0.001856
scalar tls.node[19].nic.mac1609_4 retriesExceeded:count 0
attr source org_car2x_veins_modules_mac_sigRetriesExceeded
scalar tls.node[19].nic.mac1609_4 sentAcks:count 0
attr source org_car2x_veins_modules_mac_sigSentAck
scalar tls.node[19].nic.mac1609_4 sentPackets:count 0
attr source org_car2x_veins_modules_mac_sigSentPacket
scalar tls.node[19].nic.mac1609_4 collisions:count 0
attr source org_car2x_veins_modules_mac_sigCollision
scalar tls.node[19].nic.mac1609_4 channelBusy:timeavg 2.8121212121212e-05
attr source org_car2x_veins_modules_mac_sigChannelBusy
scalar tls.node[19].veinsmobility startTime 81
scalar tls.node[19].veinsmobility totalTime 65
scalar tls.node[19].veinsmobility stopTime 147
scalar tls.node[19].veinsmobility minSpeed 1.591815538099
scalar tls.node[19].veinsmobility maxSpeed 23.747578898382
scalar tls.node[19].veinsmobility totalDistance 815.95284769701
scalar tls.node[19].veinsmobility totalCO2Emission 330.68042369548
scalar tls.node[14].appl generatedWSMs 8
scalar tls.node[14].appl receivedWSMs 0
scalar tls.node[14].appl generatedBSMs 0
scalar tls.node[14].appl receivedBSMs 0
scalar tls.node[14].appl generatedWSAs 0
scalar tls.node[14].appl receivedWSAs 0
scalar tls.node[14].nic.phy80211p busyTime 0
scalar tls.node[14].nic.mac1609_4 ReceivedUnicastPackets 0
scalar tls.node[14].nic.mac1609_4 ReceivedBroadcasts 0
scalar tls.node[14].nic.mac1609_4 SentPackets 8
scalar tls.node[14].nic.mac1609_4 SentAcknowledgements 0
scalar tls.node[14].nic.mac1609_4 RetriesExceeded 0
scalar tls.node[14].nic.mac1609_4 SNIRLostPackets 0
scalar tls.node[14].nic.mac1609_4 RXTXLostPackets 0
scalar tls.node[14].nic.mac1609_4 TotalLostPackets 0
scalar tls.node[14].nic.mac1609_4 DroppedPacketsInMac 0
scalar tls.node[14].nic.mac1609_4 TooLittleTime 0
scalar tls.node[14].nic.mac1609_4 TimesIntoBackoff 8
scalar tls.node[14].nic.mac1609_4 SlotsBackoff 12
scalar tls.node[14].nic.mac1609_4 NumInternalContention 0
scalar tls.node[14].nic.mac1609_4 totalBusyTime 0.001864
scalar tls.node[14].nic.mac1609_4 retriesExceeded:count 0
attr source org_car2x_veins_modules_mac_sigRetriesExceeded
scalar tls.node[14].nic.mac1609_4 sentAcks:count 0
attr source org_car2x_veins_modules_mac_sigSentAck
scalar tls.node[14].nic.mac1609_4 sentPackets:count 8
attr source org_car2x_veins_modules_mac_sigSentPacket
scalar tls.node[14].nic.mac1609_4 collisions:count 0
attr source org_car2x_veins_modules_mac_sigCollision
scalar tls.node[14].nic.mac1609_4 channelBusy:timeavg 1.8828282828283e-05
attr source org_car2x_veins_modules_mac_sigChannelBusy
scalar tls.node[14].veinsmobility startTime 61
scalar tls.node[14].veinsmobility totalTime 98
scalar tls.node[14].veinsmobility stopTime 160
scalar tls.node[14].veinsmobility minSpeed 0.15225448624271
scalar tls.node[14].veinsmobility maxSpeed 21.976201345647
scalar tls.node[14].veinsmobility totalDistance 1035.4521289561
scalar tls.node[14].veinsmobility totalCO2Emission 317.24406418194
scalar tls.node[26].appl generatedWSMs 0
scalar tls.node[26].appl receivedWSMs 0
scalar tls.node[26].appl generatedBSMs 0
scalar tls.node[26].appl receivedBSMs 0
scalar tls.node[26].appl generatedWSAs 0
scalar tls.node[26].appl receivedWSAs 0
scalar tls.node[26].nic.phy80211p busyTime 2.7294117647059e-05
scalar tls.node[26].nic.mac1609_4 ReceivedUnicastPackets 0
scalar tls.node[26].nic.mac1609_4 ReceivedBroadcasts 0
scalar tls.node[26].nic.mac1609_4 SentPackets 0
scalar tls.node[26].nic.mac1609_4 SentAcknowledgements 0
scalar tls.node[26].nic.mac1609_4 RetriesExceeded 0
scalar tls.node[26].nic.mac1609_4 SNIRLostPackets 8
scalar tls.node[26].nic.mac1609_4 RXTXLostPackets 0
scalar tls.node[26].nic.mac1609_4 TotalLostPackets 8
scalar tls.node[26].nic.mac1609_4 DroppedPacketsInMac 0
scalar tls.node[26].nic.mac1609_4 TooLittleTime 0
scalar tls.node[26].nic.mac1609_4 TimesIntoBackoff 0
scalar tls.node[26].nic.mac1609_4 SlotsBackoff 0
scalar tls.node[26].nic.mac1609_4 NumInternalContention 0
scalar tls.node[26].nic.mac1609_4 totalBusyTime 0.001856
scalar tls.node[26].nic.mac1609_4 retriesExceeded:count 0
attr source org_car2x_veins_modules_mac_sigRetriesExceeded
scalar tls.node[26].nic.mac1609_4 sentAcks:count 0
attr source org_car2x_veins_modules_mac_sigSentAck
scalar tls.node[26].nic.mac1609_4 sentPackets:count 0
attr source org_car2x_veins_modules_mac_sigSentPacket
scalar tls.node[26].nic.mac1609_4 collisions:count 0
attr source org_car2x_veins_modules_mac_sigCollision
scalar tls.node[26].nic.mac1609_4 channelBusy:timeavg 2.7294117647059e-05
attr source org_car2x_veins_modules_mac_sigChannelBusy
scalar tls.node[26].veinsmobility startTime 108
scalar tls.node[26].veinsmobility totalTime 67
scalar tls.node[26].veinsmobility stopTime 176
scalar tls.node[26].veinsmobility minSpeed 2.2793558065081
scalar tls.node[26].veinsmobility maxSpeed 25.645303168031
scalar tls.node[26].veinsmobility totalDistance 819.97847395711
scalar tls.node[26].veinsmobility totalCO2Emission 286.75864627665
scalar tls.node[21].appl generatedWSMs 0
scalar tls.node[21].appl receivedWSMs 0
scalar tls.node[21].appl generatedBSMs 0
scalar tls.node[21].appl receivedBSMs 0
scalar tls.node[21].appl generatedWSAs 0
scalar tls.node[21].appl receivedWSAs 0
scalar tls.node[21].nic.phy80211p busyTime 2.0173913043478e-05
scalar tls.node[21].nic.mac1609_4 ReceivedUnicastPackets 0
scalar tls.node[21].nic.mac1609_4 ReceivedBroadcasts 0
scalar tls.node[21].nic.mac1609_4 SentPackets 0
scalar tls.node[21].nic.mac1609_4 SentAcknowledgements 0
scalar tls.node[21].nic.mac1609_4 RetriesExceeded 0
scalar tls.node[21].nic.mac1609_4 SNIRLostPackets 8
scalar tls.node[21].nic.mac1609_4 RXTXLostPackets 0
scalar tls.node[21].nic.mac1609_4 TotalLostPackets 8
scalar tls.node[21].nic.mac1609_4 DroppedPacketsInMac 0
scalar tls.node[21].nic.mac1609_4 TooLittleTime 0
scalar tls.node[21].nic.mac1609_4 TimesIntoBackoff 0
scalar tls.node[21].nic.mac1609_4 SlotsBackoff 0
scalar tls.node[21].nic.mac1609_4 NumInternalContention 0
scalar tls.node[21].nic.mac1609_4 totalBusyTime 0.001856
scalar tls.node[21].nic.mac1609_4 retriesExceeded:count 0
attr source org_car2x_veins_modules_mac_sigRetriesExceeded
scalar tls.node[21].nic.mac1609_4 sentAcks:count 0
attr source org_car2x_veins_modules_mac_sigSentAck
scalar tls.node[21].nic.mac1609_4 sentPackets:count 0
attr source org_car2x_veins_modules_mac_sigSentPacket
scalar tls.node[21].nic.mac1609_4 collisions:count 0
attr source org_car2x_veins_modules_mac_sigCollision
scalar tls.node[21].nic.mac1609_4 channelBusy:timeavg 2.0173913043478e-05
attr source org_car2x_veins_modules_mac_sigChannelBusy
scalar tls.node[21].veinsmobility startTime 88
scalar tls.node[21].veinsmobility totalTime 91
scalar tls.node[21].veinsmobility stopTime 180
scalar tls.node[21].veinsmobility minSpeed 0
scalar tls.node[21].veinsmobility maxSpeed 28.037831052633
scalar tls.node[21].veinsmobility totalDistance 1163.8397323311
scalar tls.node[21].veinsmobility totalCO2Emission 448.70200130444
scalar tls.node[31].appl generatedWSMs 0
scalar tls.node[31].appl receivedWSMs 0
scalar tls.node[31].appl generatedBSMs 0
scalar tls.node[31].appl receivedBSMs 0
scalar tls.node[31].appl generatedWSAs 0
scalar tls.node[31].appl receivedWSAs 0
scalar tls.node[31].nic.phy80211p busyTime 4.1428571428571e-06
scalar tls.node[31].nic.mac1609_4 ReceivedUnicastPackets 0
scalar tls.node[31].nic.mac1609_4 ReceivedBroadcasts 0
scalar tls.node[31].nic.mac1609_4 SentPackets 0
scalar tls.node[31].nic.mac1609_4 SentAcknowledgements 0
scalar tls.node[31].nic.mac1609_4 RetriesExceeded 0
scalar tls.node[31].nic.mac1609_4 SNIRLostPackets 1
scalar tls.node[31].nic.mac1609_4 RXTXLostPackets 0
scalar tls.node[31].nic.mac1609_4 TotalLostPackets 1
scalar tls.node[31].nic.mac1609_4 DroppedPacketsInMac 0
scalar tls.node[31].nic.mac1609_4 TooLittleTime 0
scalar tls.node[31].nic.mac1609_4 TimesIntoBackoff 0
scalar tls.node[31].nic.mac1609_4 SlotsBackoff 0
scalar tls.node[31].nic.mac1609_4 NumInternalContention 0
scalar tls.node[31].nic.mac1609_4 totalBusyTime 0.000232
scalar tls.node[31].nic.mac1609_4 retriesExceeded:count 0
attr source org_car2x_veins_modules_mac_sigRetriesExceeded
scalar tls.node[31].nic.mac1609_4 sentAcks:count 0
attr source org_car2x_veins_modules_mac_sigSentAck
scalar tls.node[31].nic.mac1609_4 sentPackets:count 0
attr source org_car2x_veins_modules_mac_sigSentPacket
scalar tls.node[31].nic.mac1609_4 collisions:count 0
attr source org_car2x_veins_modules_mac_sigCollision
scalar tls.node[31].nic.mac1609_4 channelBusy:timeavg 4.1428571428571e-06
attr source org_car2x_veins_modules_mac_sigChannelBusy
scalar tls.node[31].veinsmobility startTime 124
scalar tls.node[31].veinsmobility totalTime 55
scalar tls.node[31].veinsmobility stopTime 180
scalar tls.node[31].veinsmobility minSpeed 0.1932259628766
scalar tls.node[31].veinsmobility maxSpeed 31.141848574732
scalar tls.node[31].veinsmobility totalDistance 857.87918893877
scalar tls.node[31].veinsmobility totalCO2Emission 388.43514552381
scalar tls.node[27].appl generatedWSMs 0
scalar tls.node[27].appl receivedWSMs 0
scalar tls.node[27].appl generatedBSMs 0
scalar tls.node[27].appl receivedBSMs 0
scalar tls.node[27].appl generatedWSAs 0
scalar tls.node[27].appl receivedWSAs 0
scalar tls.node[27].nic.phy80211p busyTime 2.5424657534247e-05
scalar tls.node[27].nic.mac1609_4 ReceivedUnicastPackets 0
scalar tls.node[27].nic.mac1609_4 ReceivedBroadcasts 0
scalar tls.node[27].nic.mac1609_4 SentPackets 0
scalar tls.node[27].nic.mac1609_4 SentAcknowledgements 0
scalar tls.node[27].nic.mac1609_4 RetriesExceeded 0
scalar tls.node[27].nic.mac1609_4 SNIRLostPackets 8
scalar tls.node[27].nic.mac1609_4 RXTXLostPackets 0
scalar tls.node[27].nic.mac1609_4 TotalLostPackets 8
scalar tls.node[27].nic.mac1609_4 DroppedPacketsInMac 0
scalar tls.node[27].nic.mac1609_4 TooLittleTime 0
scalar tls.node[27].nic.mac1609_4 TimesIntoBackoff 0
scalar tls.node[27].nic.mac1609_4 SlotsBackoff 0
scalar tls.node[27].nic.mac1609_4 NumInternalContention 0
scalar tls.node[27].nic.mac1609_4 totalBusyTime 0.001856
scalar tls.node[27].nic.mac1609_4 retriesExceeded:count 0
attr source org_car2x_veins_modules_mac_sigRetriesExceeded
scalar tls.node[27].nic.mac1609_4 sentAcks:count 0
attr source org_car2x_veins_modules_mac_sigSentAck
scalar tls.node[27].nic.mac1609_4 sentPackets:count 0
attr source org_car2x_veins_modules_mac_sigSentPacket
scalar tls.node[27].nic.mac1609_4 collisions:count 0
attr source org_car2x_veins_modules_mac_sigCollision
scalar tls.node[27].nic.mac1609_4 channelBusy:timeavg 2.5424657534247e-05
attr source org_car2x_veins_modules_mac_sigChannelBusy
scalar tls.node[27].veinsmobility startTime 111
scalar tls.node[27].veinsmobility totalTime 72
scalar tls.node[27].veinsmobility stopTime 184
scalar tls.node[27].veinsmobility minSpeed 1.7856316009536
scalar tls.node[27].veinsmobility maxSpeed 21.685391115458
scalar tls.node[27].veinsmobility totalDistance 952.49665145502
scalar tls.node[27].veinsmobility totalCO2Emission 255.68185600492
scalar tls.node[5].appl generatedWSMs 0
scalar tls.node[5].appl receivedWSMs 8
scalar tls.node[5].appl generatedBSMs 0
scalar tls.node[5].appl receivedBSMs 0
scalar tls.node[5].appl generatedWSAs 0
scalar tls.node[5].appl receivedWSAs 0
scalar tls.node[5].nic.phy80211p busyTime 1.0917647058824e-05
scalar tls.node[5].nic.mac1609_4 ReceivedUnicastPackets 0
scalar tls.node[5].nic.mac1609_4 ReceivedBroadcasts 8
scalar tls.node[5].nic.mac1609_4 SentPackets 0
scalar tls.node[5].nic.mac1609_4 SentAcknowledgements 0
scalar tls.node[5].nic.mac1609_4 RetriesExceeded 0
scalar tls.node[5].nic.mac1609_4 SNIRLostPackets 0
scalar tls.node[5].nic.mac1609_4 RXTXLostPackets 0
scalar tls.node[5].nic.mac1609_4 TotalLostPackets 0
scalar tls.node[5].nic.mac1609_4 DroppedPacketsInMac 0
scalar tls.node[5].nic.mac1609_4 TooLittleTime 0
scalar tls.node[5].nic.mac1609_4 TimesIntoBackoff 0
scalar tls.node[5].nic.mac1609_4 SlotsBackoff 0
scalar tls.node[5].nic.mac1609_4 NumInternalContention 0
scalar tls.node[5].nic.mac1609_4 totalBusyTime 0.001856
scalar tls.node[5].nic.mac1609_4 retriesExceeded:count 0
attr source org_car2x_veins_modules_mac_sigRetriesExceeded
scalar tls.node[5].nic.mac1609_4 sentAcks:count 0
attr source org_car2x_veins_modules_mac_sigSentAck
scalar tls.node[5].nic.mac1609_4 sentPackets:count 0
attr source org_car2x_veins_modules_mac_sigSentPacket
scalar tls.node[5].nic.mac1609_4 collisions:count 0
attr source org_car2x_veins_modules_mac_sigCollision
scalar tls.node[5].nic.mac1609_4 channelBusy:timeavg 1.0917647058824e-05
attr source org_car2x_veins_modules_mac_sigChannelBusy
scalar tls.node[5].veinsmobility startTime 21
scalar tls.node[5].veinsmobility totalTime 169
scalar tls.node[5].veinsmobility stopTime 191
scalar tls.node[5].veinsmobility minSpeed 0
scalar tls.node[5].veinsmobility maxSpeed 31.903089456382
scalar tls.node[5].veinsmobility totalDistance 2044.68102404
scalar tls.node[5].veinsmobility totalCO2Emission 741.44937377918
scalar tls.node[23].appl generatedWSMs 0
scalar tls.node[23].appl receivedWSMs 8
scalar tls.node[23].appl generatedBSMs 0
scalar tls.node[23].appl receivedBSMs 0
scalar tls.node[23].appl generatedWSAs 0
scalar tls.node[23].appl receivedWSAs 0
scalar tls.node[23].nic.phy80211p busyTime 1.8019417475728e-05
scalar tls.node[23].nic.mac1609_4 ReceivedUnicastPackets 0
scalar tls.node[23].nic.mac1609_4 ReceivedBroadcasts 8
scalar tls.node[23].nic.mac1609_4 SentPackets 0
scalar tls.node[23].nic.mac1609_4 SentAcknowledgements 0
scalar tls.node[23].nic.mac1609_4 RetriesExceeded 0
scalar tls.node[23].nic.mac1609_4 SNIRLostPackets 0
scalar tls.node[23].nic.mac1609_4 RXTXLostPackets 0
scalar tls.node[23].nic.mac1609_4 TotalLostPackets 0
scalar tls.node[23].nic.mac1609_4 DroppedPacketsInMac 0
scalar tls.node[23].nic.mac1609_4 TooLittleTime 0
scalar tls.node[23].nic.mac1609_4 TimesIntoBackoff 0
scalar tls.node[23].nic.mac1609_4 SlotsBackoff 0
scalar tls.node[23].nic.mac1609_4 NumInternalContention 0
scalar tls.node[23].nic.mac1609_4 totalBusyTime 0.001856
scalar tls.node[23].nic.mac1609_4 retriesExceeded:count 0
attr source org_car2x_veins_modules_mac_sigRetriesExceeded
scalar tls.node[23].nic.mac1609_4 sentAcks:count 0
attr source org_car2x_veins_modules_mac_sigSentAck
scalar tls.node[23].nic.mac1609_4 sentPackets:count 0
attr source org_car2x_veins_modules_mac_sigSentPacket
scalar tls.node[23].nic.mac1609_4 collisions:count 0
attr source org_car2x_veins_modules_mac_sigCollision
scalar tls.node[23].nic.mac1609_4 channelBusy:timeavg 1.8019417475728e-05
attr source org_car2x_veins_modules_mac_sigChannelBusy
scalar tls.node[23].veinsmobility startTime 94
scalar tls.node[23].veinsmobility totalTime 102
scalar tls.node[23].veinsmobility stopTime 197
scalar tls.node[23].veinsmobility minSpeed 0.08883637086775
scalar tls.node[23].veinsmobility maxSpeed 22.248034109193
scalar tls.node[23].veinsmobility totalDistance 1350.1581495974
scalar tls.node[23].veinsmobility totalCO2Emission 339.74342521832
scalar tls.node[4].appl generatedWSMs 0
scalar tls.node[4].appl receivedWSMs 8
scalar tls.node[4].appl generatedBSMs 0
scalar tls.node[4].appl receivedBSMs 0
scalar tls.node[4].appl generatedWSAs 0
scalar tls.node[4].appl receivedWSAs 0
scalar tls.node[4].nic.phy80211p busyTime 9.2338308457711e-06
scalar tls.node[4].nic.mac1609_4 ReceivedUnicastPackets 0
scalar tls.node[4].nic.mac1609_4 ReceivedBroadcasts 8
scalar tls.node[4].nic.mac1609_4 SentPackets 0
scalar tls.node[4].nic.mac1609_4 SentAcknowledgements 0
scalar tls.node[4].nic.mac1609_4 RetriesExceeded 0
scalar tls.node[4].nic.mac1609_4 SNIRLostPackets 0
scalar tls.node[4].nic.mac1609_4 RXTXLostPackets 0
scalar tls.node[4].nic.mac1609_4 TotalLostPackets 0
scalar tls.node[4].nic.mac1609_4 DroppedPacketsInMac 0
scalar tls.node[4].nic.mac1609_4 TooLittleTime 0
scalar tls.node[4].nic.mac1609_4 TimesIntoBackoff 0
scalar tls.node[4].nic.mac1609_4 SlotsBackoff 0
scalar tls.node[4].nic.mac1609_4 NumInternalContention 0
scalar tls.node[4].nic.mac1609_4 totalBusyTime 0.001856
scalar tls.node[4].nic.mac1609_4 retriesExceeded:count 0
attr source org_car2x_veins_modules_mac_sigRetriesExceeded
scalar tls.node[4].nic.mac1609_4 sentAcks:count 0
attr source org_car2x_veins_modules_mac_sigSentAck
scalar tls.node[4].nic.mac1609_4 sentPackets:count 0
attr source org_car2x_veins_modules_mac_sigSentPacket
scalar tls.node[4].nic.mac1609_4 collisions:count 0
attr source org_car2x_veins_modules_mac_sigCollision
scalar tls.node[4].nic.mac1609_4 channelBusy:timeavg 9.2338308457711e-06
attr source org_car2x_veins_modules_mac_sigChannelBusy
scalar tls.node[4].veinsmobility startTime 15
scalar tls.node[4].veinsmobility totalTime 200
scalar tls.node[4].veinsmobility stopTime 216
scalar tls.node[4].veinsmobility minSpeed 0
scalar tls.node[4].veinsmobility maxSpeed 24.460656419979
scalar tls.node[4].veinsmobility totalDistance 2238.1242267765
scalar tls.node[4].veinsmobility totalCO2Emission 640.51850121949
scalar tls.node[16].appl generatedWSMs 0
scalar tls.node[16].appl receivedWSMs 6
scalar tls.node[16].appl generatedBSMs 0
scalar tls.node[16].appl receivedBSMs 0
scalar tls.node[16].appl generatedWSAs 0
scalar tls.node[16].appl receivedWSAs 0
scalar tls.node[16].nic.phy80211p busyTime 1.2456375838926e-05
scalar tls.node[16].nic.mac1609_4 ReceivedUnicastPackets 0
scalar tls.node[16].nic.mac1609_4 ReceivedBroadcasts 6
scalar tls.node[16].nic.mac1609_4 SentPackets 0
scalar tls.node[16].nic.mac1609_4 SentAcknowledgements 0
scalar tls.node[16].nic.mac1609_4 RetriesExceeded 0
scalar tls.node[16].nic.mac1609_4 SNIRLostPackets 2
scalar tls.node[16].nic.mac1609_4 RXTXLostPackets 0
scalar tls.node[16].nic.mac1609_4 TotalLostPackets 2
scalar tls.node[16].nic.mac1609_4 DroppedPacketsInMac 0
scalar tls.node[16].nic.mac1609_4 TooLittleTime 0
scalar tls.node[16].nic.mac1609_4 TimesIntoBackoff 0
scalar tls.node[16].nic.mac1609_4 SlotsBackoff 0
scalar tls.node[16].nic.mac1609_4 NumInternalContention 0
scalar tls.node[16].nic.mac1609_4 totalBusyTime 0.001856
scalar tls.node[16].nic.mac1609_4 retriesExceeded:count 0
attr source org_car2x_veins_modules_mac_sigRetriesExceeded
scalar tls.node[16].nic.mac1609_4 sentAcks:count 0
attr source org_car2x_veins_modules_mac_sigSentAck
scalar tls.node[16].nic.mac1609_4 sentPackets:count 0
attr source org_car2x_veins_modules_mac_sigSentPacket
scalar tls.node[16].nic.mac1609_4 collisions:count 0
attr source org_car2x_veins_modules_mac_sigCollision
scalar tls.node[16].nic.mac1609_4 channelBusy:timeavg 1.2456375838926e-05
attr source org_car2x_veins_modules_mac_sigChannelBusy
scalar tls.node[16].veinsmobility startTime 68
scalar tls.node[16].veinsmobility totalTime 148
scalar tls.node[16].veinsmobility stopTime 217
scalar tls.node[16].veinsmobility minSpeed 2.2375093692681
scalar tls.node[16].veinsmobility maxSpeed 28.912729694556
scalar tls.node[16].veinsmobility totalDistance 2855.9354798187
scalar tls.node[16].veinsmobility totalCO2Emission 742.988122917
scalar tls.node[3].appl generatedWSMs 0
scalar tls.node[3].appl receivedWSMs 8
scalar tls.node[3].appl generatedBSMs 0
scalar tls.node[3].appl receivedBSMs 0
scalar tls.node[3].appl generatedWSAs 0
scalar tls.node[3].appl receivedWSAs 0
scalar tls.node[3].nic.phy80211p busyTime 8.9661835748792e-06
scalar tls.node[3].nic.mac1609_4 ReceivedUnicastPackets 0
scalar tls.node[3].nic.mac1609_4 ReceivedBroadcasts 8
scalar tls.node[3].nic.mac1609_4 SentPackets 0
scalar tls.node[3].nic.mac1609_4 SentAcknowledgements 0
scalar tls.node[3].nic.mac1609_4 RetriesExceeded 0
scalar tls.node[3].nic.mac1609_4 SNIRLostPackets 0
scalar tls.node[3].nic.mac1609_4 RXTXLostPackets 0
scalar tls.node[3].nic.mac1609_4 TotalLostPackets 0
scalar tls.node[3].nic.mac1609_4 DroppedPacketsInMac 0
scalar tls.node[3].nic.mac1609_4 TooLittleTime 0
scalar tls.node[3].nic.mac1609_4 TimesIntoBackoff 0
scalar tls.node[3].nic.mac1609_4 SlotsBackoff 0
scalar tls.node[3].nic.mac1609_4 NumInternalContention 0
scalar tls.node[3].nic.mac1609_4 totalBusyTime 0.001856
scalar tls.node[3].nic.mac1609_4 retriesExceeded:count 0
attr source org_car2x_veins_modules_mac_sigRetriesExceeded
scalar tls.node[3].nic.mac1609_4 sentAcks:count 0
attr source org_car2x_veins_modules_mac_sigSentAck
scalar tls.node[3].nic.mac1609_4 sentPackets:count 0
attr source org_car2x_veins_modules_mac_sigSentPacket
scalar tls.node[3].nic.mac1609_4 collisions:count 0
attr source org_car2x_veins_modules_mac_sigCollision
scalar tls.node[3].nic.mac1609_4 channelBusy:timeavg 8.9661835748792e-06
attr source org_car2x_veins_modules_mac_sigChannelBusy
scalar tls.node[3].veinsmobility startTime 11
scalar tls.node[3].veinsmobility totalTime 206
scalar tls.node[3].veinsmobility stopTime 218
scalar tls.node[3].veinsmobility minSpeed 0
scalar tls.node[3].veinsmobility maxSpeed 28.085064355381
scalar tls.node[3].veinsmobility totalDistance 2471.2262115901
scalar tls.node[3].veinsmobility totalCO2Emission 714.72067532682
scalar tls.node[24].appl generatedWSMs 0
scalar tls.node[24].appl receivedWSMs 8
scalar tls.node[24].appl generatedBSMs 0
scalar tls.node[24].appl receivedBSMs 0
scalar tls.node[24].appl generatedWSAs 0
scalar tls.node[24].appl receivedWSAs 0
scalar tls.node[24].nic.phy80211p busyTime 1.4060606060606e-05
scalar tls.node[24].nic.mac1609_4 ReceivedUnicastPackets 0
scalar tls.node[24].nic.mac1609_4 ReceivedBroadcasts 8
scalar tls.node[24].nic.mac1609_4 SentPackets 0
scalar tls.node[24].nic.mac1609_4 SentAcknowledgements 0
scalar tls.node[24].nic.mac1609_4 RetriesExceeded 0
scalar tls.node[24].nic.mac1609_4 SNIRLostPackets 0
scalar tls.node[24].nic.mac1609_4 RXTXLostPackets 0
scalar tls.node[24].nic.mac1609_4 TotalLostPackets 0
scalar tls.node[24].nic.mac1609_4 DroppedPacketsInMac 0
scalar tls.node[24].nic.mac1609_4 TooLittleTime 0
scalar tls.node[24].nic.mac1609_4 TimesIntoBackoff 0
scalar tls.node[24].nic.mac1609_4 SlotsBackoff 0
scalar tls.node[24].nic.mac1609_4 NumInternalContention 0
scalar tls.node[24].nic.mac1609_4 totalBusyTime 0.001856
scalar tls.node[24].nic.mac1609_4 retriesExceeded:count 0
attr source org_car2x_veins_modules_mac_sigRetriesExceeded
scalar tls.node[24].nic.mac1609_4 sentAcks:count 0
attr source org_car2x_veins_modules_mac_sigSentAck
scalar tls.node[24].nic.mac1609_4 sentPackets:count 0
attr source org_car2x_veins_modules_mac_sigSentPacket
scalar tls.node[24].nic.mac1609_4 collisions:count 0
attr source org_car2x_veins_modules_mac_sigCollision
scalar tls.node[24].nic.mac1609_4 channelBusy:timeavg 1.4060606060606e-05
attr source org_car2x_veins_modules_mac_sigChannelBusy
scalar tls.node[24].veinsmobility startTime 98
scalar tls.node[24].veinsmobility totalTime 131
scalar tls.node[24].veinsmobility stopTime 230
scalar tls.node[24].veinsmobility minSpeed 0.21767590760102
scalar tls.node[24].veinsmobility maxSpeed 20.766192884925
scalar tls.node[24].veinsmobility totalDistance 1658.3694958131
scalar tls.node[24].veinsmobility totalCO2Emission 505.80157945489
scalar tls.node[17].appl generatedWSMs 0
scalar tls.node[17].appl receivedWSMs 8
scalar tls.node[17].appl generatedBSMs 0
scalar tls.node[17].appl receivedBSMs 0
scalar tls.node[17].appl generatedWSAs 0
scalar tls.node[17].appl receivedWSAs 0
scalar tls.node[17].nic.phy80211p busyTime 1.16e-05
scalar tls.node[17].nic.mac1609_4 ReceivedUnicastPackets 0
scalar tls.node[17].nic.mac1609_4 ReceivedBroadcasts 8
scalar tls.node[17].nic.mac1609_4 SentPackets 0
scalar tls.node[17].nic.mac1609_4 SentAcknowledgements 0
scalar tls.node[17].nic.mac1609_4 RetriesExceeded 0
scalar tls.node[17].nic.mac1609_4 SNIRLostPackets 0
scalar tls.node[17].nic.mac1609_4 RXTXLostPackets 0
scalar tls.node[17].nic.mac1609_4 TotalLostPackets 0
scalar tls.node[17].nic.mac1609_4 DroppedPacketsInMac 0
scalar tls.node[17].nic.mac1609_4 TooLittleTime 0
scalar tls.node[17].nic.mac1609_4 TimesIntoBackoff 0
scalar tls.node[17].nic.mac1609_4 SlotsBackoff 0
scalar tls.node[17].nic.mac1609_4 NumInternalContention 0
scalar tls.node[17].nic.mac1609_4 totalBusyTime 0.001856
scalar tls.node[17].nic.mac1609_4 retriesExceeded:count 0
attr source org_car2x_veins_modules_mac_sigRetriesExceeded
scalar tls.node[17].nic.mac1609_4 sentAcks:count 0
attr source org_car2x_veins_modules_mac_sigSentAck
scalar tls.node[17].nic.mac1609_4 sentPackets:count 0
attr source org_car2x_veins_modules_mac_sigSentPacket
scalar tls.node[17].nic.mac1609_4 collisions:count 0
attr source org_car2x_veins_modules_mac_sigCollision
scalar tls.node[17].nic.mac1609_4 channelBusy:timeavg 1.16e-05
attr source org_car2x_veins_modules_mac_sigChannelBusy
scalar tls.node[17].veinsmobility startTime 71
scalar tls.node[17].veinsmobility totalTime 159
scalar tls.node[17].veinsmobility stopTime 231
scalar tls.node[17].veinsmobility minSpeed 0
scalar tls.node[17].veinsmobility maxSpeed 28.711906701769
scalar tls.node[17].veinsmobility totalDistance 1841.0614247226
scalar tls.node[17].veinsmobility totalCO2Emission 691.60236417929
scalar tls.node[30].appl generatedWSMs 0
scalar tls.node[30].appl receivedWSMs 0
scalar tls.node[30].appl generatedBSMs 0
scalar tls.node[30].appl receivedBSMs 0
scalar tls.node[30].appl generatedWSAs 0
scalar tls.node[30].appl receivedWSAs 0
scalar tls.node[30].nic.phy80211p busyTime 8.2857142857143e-06
scalar tls.node[30].nic.mac1609_4 ReceivedUnicastPackets 0
scalar tls.node[30].nic.mac1609_4 ReceivedBroadcasts 0
scalar tls.node[30].nic.mac1609_4 SentPackets 0
scalar tls.node[30].nic.mac1609_4 SentAcknowledgements 0
scalar tls.node[30].nic.mac1609_4 RetriesExceeded 0
scalar tls.node[30].nic.mac1609_4 SNIRLostPackets 4
scalar tls.node[30].nic.mac1609_4 RXTXLostPackets 0
scalar tls.node[30].nic.mac1609_4 TotalLostPackets 4
scalar tls.node[30].nic.mac1609_4 DroppedPacketsInMac 0
scalar tls.node[30].nic.mac1609_4 TooLittleTime 0
scalar tls.node[30].nic.mac1609_4 TimesIntoBackoff 0
scalar tls.node[30].nic.mac1609_4 SlotsBackoff 0
scalar tls.node[30].nic.mac1609_4 NumInternalContention 0
scalar tls.node[30].nic.mac1609_4 totalBusyTime 0.000928
scalar tls.node[30].nic.mac1609_4 retriesExceeded:count 0
attr source org_car2x_veins_modules_mac_sigRetriesExceeded
scalar tls.node[30].nic.mac1609_4 sentAcks:count 0
attr source org_car2x_veins_modules_mac_sigSentAck
scalar tls.node[30].nic.mac1609_4 sentPackets:count 0
attr source org_car2x_veins_modules_mac_sigSentPacket
scalar tls.node[30].nic.mac1609_4 collisions:count 0
attr source org_car2x_veins_modules_mac_sigCollision
scalar tls.node[30].nic.mac1609_4 channelBusy:timeavg 8.2857142857143e-06
attr source org_car2x_veins_modules_mac_sigChannelBusy
scalar tls.node[30].veinsmobility startTime 121
scalar tls.node[30].veinsmobility totalTime 111
scalar tls.node[30].veinsmobility stopTime 233
scalar tls.node[30].veinsmobility minSpeed 2.0551424052101
scalar tls.node[30].veinsmobility maxSpeed 28.280087971875
scalar tls.node[30].veinsmobility totalDistance 1350.1667404739
scalar tls.node[30].veinsmobility totalCO2Emission 484.61631243928
scalar tls.node[15].appl generatedWSMs 0
scalar tls.node[15].appl receivedWSMs 8
scalar tls.node[15].appl generatedBSMs 0
scalar tls.node[15].appl receivedBSMs 0
scalar tls.node[15].appl generatedWSAs 0
scalar tls.node[15].appl receivedWSAs 0
scalar tls.node[15].nic.phy80211p busyTime 1.0485875706215e-05
scalar tls.node[15].nic.mac1609_4 ReceivedUnicastPackets 0
scalar tls.node[15].nic.mac1609_4 ReceivedBroadcasts 8
scalar tls.node[15].nic.mac1609_4 SentPackets 0
scalar tls.node[15].nic.mac1609_4 SentAcknowledgements 0
scalar tls.node[15].nic.mac1609_4 RetriesExceeded 0
scalar tls.node[15].nic.mac1609_4 SNIRLostPackets 0
scalar tls.node[15].nic.mac1609_4 RXTXLostPackets 0
scalar tls.node[15].nic.mac1609_4 TotalLostPackets 0
scalar tls.node[15].nic.mac1609_4 DroppedPacketsInMac 0
scalar tls.node[15].nic.mac1609_4 TooLittleTime 0
scalar tls.node[15].nic.mac1609_4 TimesIntoBackoff 0
scalar tls.node[15].nic.mac1609_4 SlotsBackoff 0
scalar tls.node[15].nic.mac1609_4 NumInternalContention 0
scalar tls.node[15].nic.mac1609_4 totalBusyTime 0.001856
scalar tls.node[15].nic.mac1609_4 retriesExceeded:count 0
attr source org_car2x_veins_modules_mac_sigRetriesExceeded
scalar tls.node[15].nic.mac1609_4 sentAcks:count 0
attr source org_car2x_veins_modules_mac_sigSentAck
scalar tls.node[15].nic.mac1609_4 sentPackets:count 0
attr source org_car2x_veins_modules_mac_sigSentPacket
scalar tls.node[15].nic.mac1609_4 collisions:count 0
attr source org_car2x_veins_modules_mac_sigCollision
scalar tls.node[15].nic.mac1609_4 channelBusy:timeavg 1.0485875706215e-05
attr source org_car2x_veins_modules_mac_sigChannelBusy
scalar tls.node[15].veinsmobility startTime 65
scalar tls.node[15].veinsmobility totalTime 176
scalar tls.node[15].veinsmobility stopTime 242
scalar tls.node[15].veinsmobility minSpeed 2.5810525485314
scalar tls.node[15].veinsmobility maxSpeed 28.383432173383
scalar tls.node[15].veinsmobility totalDistance 1977.0208828617
scalar tls.node[15].veinsmobility totalCO2Emission 599.72276949784
scalar tls.node[25].appl generatedWSMs 0
scalar tls.node[25].appl receivedWSMs 0
scalar tls.node[25].appl generatedBSMs 0
scalar tls.node[25].appl receivedBSMs 0
scalar tls.node[25].appl generatedWSAs 0
scalar tls.node[25].appl receivedWSAs 0
scalar tls.node[25].nic.phy80211p busyTime 1.3352517985612e-05
scalar tls.node[25].nic.mac1609_4 ReceivedUnicastPackets 0
scalar tls.node[25].nic.mac1609_4 ReceivedBroadcasts 0
scalar tls.node[25].nic.mac1609_4 SentPackets 0
scalar tls.node[25].nic.mac1609_4 SentAcknowledgements 0
scalar tls.node[25].nic.mac1609_4 RetriesExceeded 0
scalar tls.node[25].nic.mac1609_4 SNIRLostPackets 8
scalar tls.node[25].nic.mac1609_4 RXTXLostPackets 0
scalar tls.node[25].nic.mac1609_4 TotalLostPackets 8
scalar tls.node[25].nic.mac1609_4 DroppedPacketsInMac 0
scalar tls.node[25].nic.mac1609_4 TooLittleTime 0
scalar tls.node[25].nic.mac1609_4 TimesIntoBackoff 0
scalar tls.node[25].nic.mac1609_4 SlotsBackoff 0
scalar tls.node[25].nic.mac1609_4 NumInternalContention 0
scalar tls.node[25].nic.mac1609_4 totalBusyTime 0.001856
scalar tls.node[25].nic.mac1609_4 retriesExceeded:count 0
attr source org_car2x_veins_modules_mac_sigRetriesExceeded
scalar tls.node[25].nic.mac1609_4 sentAcks:count 0
attr source org_car2x_veins_modules_mac_sigSentAck
scalar tls.node[25].nic.mac1609_4 sentPackets:count 0
attr source org_car2x_veins_modules_mac_sigSentPacket
scalar tls.node[25].nic.mac1609_4 collisions:count 0
attr source org_car2x_veins_modules_mac_sigCollision
scalar tls.node[25].nic.mac1609_4 channelBusy:timeavg 1.3352517985612e-05
attr source org_car2x_veins_modules_mac_sigChannelBusy
scalar tls.node[25].veinsmobility startTime 104
scalar tls.node[25].veinsmobility totalTime 138
scalar tls.node[25].veinsmobility stopTime 243
scalar tls.node[25].veinsmobility minSpeed 5.3486583992165
scalar tls.node[25].veinsmobility maxSpeed 26.109443753447
scalar tls.node[25].veinsmobility totalDistance 2120.0641614732
scalar tls.node[25].veinsmobility totalCO2Emission 490.06160491697
scalar tls.node[10].appl generatedWSMs 0
scalar tls.node[10].appl receivedWSMs 0
scalar tls.node[10].appl generatedBSMs 0
scalar tls.node[10].appl receivedBSMs 0
scalar tls.node[10].appl generatedWSAs 0
scalar tls.node[10].appl receivedWSAs 0
scalar tls.node[10].nic.phy80211p busyTime 9.3266331658291e-06
scalar tls.node[10].nic.mac1609_4 ReceivedUnicastPackets 0
scalar tls.node[10].nic.mac1609_4 ReceivedBroadcasts 0
scalar tls.node[10].nic.mac1609_4 SentPackets 0
scalar tls.node[10].nic.mac1609_4 SentAcknowledgements 0
scalar tls.node[10].nic.mac1609_4 RetriesExceeded 0
scalar tls.node[10].nic.mac1609_4 SNIRLostPackets 8
scalar tls.node[10].nic.mac1609_4 RXTXLostPackets 0
scalar tls.node[10].nic.mac1609_4 TotalLostPackets 8
scalar tls.node[10].nic.mac1609_4 DroppedPacketsInMac 0
scalar tls.node[10].nic.mac1609_4 TooLittleTime 0
scalar tls.node[10].nic.mac1609_4 TimesIntoBackoff 0
scalar tls.node[10].nic.mac1609_4 SlotsBackoff 0
scalar tls.node[10].nic.mac1609_4 NumInternalContention 0
scalar tls.node[10].nic.mac1609_4 totalBusyTime 0.001856
scalar tls.node[10].nic.mac1609_4 retriesExceeded:count 0
attr source org_car2x_veins_modules_mac_sigRetriesExceeded
scalar tls.node[10].nic.mac1609_4 sentAcks:count 0
attr source org_car2x_veins_modules_mac_sigSentAck
scalar tls.node[10].nic.mac1609_4 sentPackets:count 0
attr source org_car2x_veins_modules_mac_sigSentPacket
scalar tls.node[10].nic.mac1609_4 collisions:count 0
attr source org_car2x_veins_modules_mac_sigCollision
scalar tls.node[10].nic.mac1609_4 channelBusy:timeavg 9.3266331658291e-06
attr source org_car2x_veins_modules_mac_sigChannelBusy
scalar tls.node[10].veinsmobility startTime 45
scalar tls.node[10].veinsmobility totalTime 198
scalar tls.node[10].veinsmobility stopTime 244
scalar tls.node[10].veinsmobility minSpeed 0.33662473580789
scalar tls.node[10].veinsmobility maxSpeed 31.173540926289
scalar tls.node[10].veinsmobility totalDistance 2818.0903675462
scalar tls.node[10].veinsmobility totalCO2Emission 663.05477399516
scalar tls.node[7].appl generatedWSMs 0
scalar tls.node[7].appl receivedWSMs 8
scalar tls.node[7].appl generatedBSMs 0
scalar tls.node[7].appl receivedBSMs 0
scalar tls.node[7].appl generatedWSAs 0
scalar tls.node[7].appl receivedWSAs 0
scalar tls.node[7].nic.phy80211p busyTime 8.4748858447489e-06
scalar tls.node[7].nic.mac1609_4 ReceivedUnicastPackets 0
scalar tls.node[7].nic.mac1609_4 ReceivedBroadcasts 8
scalar tls.node[7].nic.mac1609_4 SentPackets 0
scalar tls.node[7].nic.mac1609_4 SentAcknowledgements 0
scalar tls.node[7].nic.mac1609_4 RetriesExceeded 0
scalar tls.node[7].nic.mac1609_4 SNIRLostPackets 0
scalar tls.node[7].nic.mac1609_4 RXTXLostPackets 0
scalar tls.node[7].nic.mac1609_4 TotalLostPackets 0
scalar tls.node[7].nic.mac1609_4 DroppedPacketsInMac 0
scalar tls.node[7].nic.mac1609_4 TooLittleTime 0
scalar tls.node[7].nic.mac1609_4 TimesIntoBackoff 0
scalar tls.node[7].nic.mac1609_4 SlotsBackoff 0
scalar tls.node[7].nic.mac1609_4 NumInternalContention 0
scalar tls.node[7].nic.mac1609_4 totalBusyTime 0.001856
scalar tls.node[7].nic.mac1609_4 retriesExceeded:count 0
attr source org_car2x_veins_modules_mac_sigRetriesExceeded
scalar tls.node[7].nic.mac1609_4 sentAcks:count 0
attr source org_car2x_veins_modules_mac_sigSentAck
scalar tls.node[7].nic.mac1609_4 sentPackets:count 0
attr source org_car2x_veins_modules_mac_sigSentPacket
scalar tls.node[7].nic.mac1609_4 collisions:count 0
attr source org_car2x_veins_modules_mac_sigCollision
scalar tls.node[7].nic.mac1609_4 channelBusy:timeavg 8.4748858447489e-06
attr source org_car2x_veins_modules_mac_sigChannelBusy
scalar tls.node[7].veinsmobility startTime 28
scalar tls.node[7].veinsmobility totalTime 218
scalar tls.node[7].veinsmobility stopTime 247
scalar tls.node[7].veinsmobility minSpeed 0
scalar tls.node[7].veinsmobility maxSpeed 21.214020330186
scalar tls.node[7].veinsmobility totalDistance 2076.2639277127
scalar tls.node[7].veinsmobility totalCO2Emission 604.67238461744
scalar tls.node[8].appl generatedWSMs 0
scalar tls.node[8].appl receivedWSMs 8
scalar tls.node[8].appl generatedBSMs 0
scalar tls.node[8].appl receivedBSMs 0
scalar tls.node[8].appl generatedWSAs 0
scalar tls.node[8].appl receivedWSAs 0
scalar tls.node[8].nic.phy80211p busyTime 8.5925925925926e-06
scalar tls.node[8].nic.mac1609_4 ReceivedUnicastPackets 0
scalar tls.node[8].nic.mac1609_4 ReceivedBroadcasts 8
scalar tls.node[8].nic.mac1609_4 SentPackets 0
scalar tls.node[8].nic.mac1609_4 SentAcknowledgements 0
scalar tls.node[8].nic.mac1609_4 RetriesExceeded 0
scalar tls.node[8].nic.mac1609_4 SNIRLostPackets 0
scalar tls.node[8].nic.mac1609_4 RXTXLostPackets 0
scalar tls.node[8].nic.mac1609_4 TotalLostPackets 0
scalar tls.node[8].nic.mac1609_4 DroppedPacketsInMac 0
scalar tls.node[8].nic.mac1609_4 TooLittleTime 0
scalar tls.node[8].nic.mac1609_4 TimesIntoBackoff 0
scalar tls.node[8].nic.mac1609_4 SlotsBackoff 0
scalar tls.node[8].nic.mac1609_4 NumInternalContention 0
scalar tls.node[8].nic.mac1609_4 totalBusyTime 0.001856
scalar tls.node[8].nic.mac1609_4 retriesExceeded:count 0
attr source org_car2x_veins_modules_mac_sigRetriesExceeded
scalar tls.node[8].nic.mac1609_4 sentAcks:count 0
attr source org_car2x_veins_modules_mac_sigSentAck
scalar tls.node[8].nic.mac1609_4 sentPackets:count 0
attr source org_car2x_veins_modules_mac_sigSentPacket
scalar tls.node[8].nic.mac1609_4 collisions:count 0
attr source org_car2x_veins_modules_mac_sigCollision
scalar tls.node[8].nic.mac1609_4 channelBusy:timeavg 8.5925925925926e-06
attr source org_car2x_veins_modules_mac_sigChannelBusy
scalar tls.node[8].veinsmobility startTime 34
scalar tls.node[8].veinsmobility totalTime 215
scalar tls.node[8].veinsmobility stopTime 250
scalar tls.node[8].veinsmobility minSpeed 1.7938292987179
scalar tls.node[8].veinsmobility maxSpeed 29.276021552228
scalar tls.node[8].veinsmobility totalDistance 2594.2906046665
scalar tls.node[8].veinsmobility totalCO2Emission 752.86630924233
scalar tls.node[42].appl generatedWSMs 0
scalar tls.node[42].appl receivedWSMs 0
scalar tls.node[42].appl generatedBSMs 0
scalar tls.node[42].appl receivedBSMs 0
scalar tls.node[42].appl generatedWSAs 0
scalar tls.node[42].appl receivedWSAs 0
scalar tls.node[42].nic.phy80211p busyTime 0
scalar tls.node[42].nic.mac1609_4 ReceivedUnicastPackets 0
scalar tls.node[42].nic.mac1609_4 ReceivedBroadcasts 0
scalar tls.node[42].nic.mac1609_4 SentPackets 0
scalar tls.node[42].nic.mac1609_4 SentAcknowledgements 0
scalar tls.node[42].nic.mac1609_4 RetriesExceeded 0
scalar tls.node[42].nic.mac1609_4 SNIRLostPackets 0
scalar tls.node[42].nic.mac1609_4 RXTXLostPackets 0
scalar tls.node[42].nic.mac1609_4 TotalLostPackets 0
scalar tls.node[42].nic.mac1609_4 DroppedPacketsInMac 0
scalar tls.node[42].nic.mac1609_4 TooLittleTime 0
scalar tls.node[42].nic.mac1609_4 TimesIntoBackoff 0
scalar tls.node[42].nic.mac1609_4 SlotsBackoff 0
scalar tls.node[42].nic.mac1609_4 NumInternalContention 0
scalar tls.node[42].nic.mac1609_4 totalBusyTime 0
scalar tls.node[42].nic.mac1609_4 retriesExceeded:count 0
attr source org_car2x_veins_modules_mac_sigRetriesExceeded
scalar tls.node[42].nic.mac1609_4 sentAcks:count 0
attr source org_car2x_veins_modules_mac_sigSentAck
scalar tls.node[42].nic.mac1609_4 sentPackets:count 0
attr source org_car2x_veins_modules_mac_sigSentPacket
scalar tls.node[42].nic.mac1609_4 collisions:count 0
attr source org_car2x_veins_modules_mac_sigCollision
scalar tls.node[42].nic.mac1609_4 channelBusy:timeavg 0
attr source org_car2x_veins_modules_mac_sigChannelBusy
scalar tls.node[42].veinsmobility startTime 185
scalar tls.node[42].veinsmobility totalTime 70
scalar tls.node[42].veinsmobility stopTime 256
scalar tls.node[42].veinsmobility minSpeed 1.5555659074103
scalar tls.node[42].veinsmobility maxSpeed 27.84154242435
scalar tls.node[42].veinsmobility totalDistance 1030.0932611005
scalar tls.node[42].veinsmobility totalCO2Emission 392.33911539874
scalar tls.node[22].appl generatedWSMs 0
scalar tls.node[22].appl receivedWSMs 0
scalar tls.node[22].appl generatedBSMs 0
scalar tls.node[22].appl receivedBSMs 0
scalar tls.node[22].appl generatedWSAs 0
scalar tls.node[22].appl receivedWSAs 0
scalar tls.node[22].nic.phy80211p busyTime 1.0368715083799e-05
scalar tls.node[22].nic.mac1609_4 ReceivedUnicastPackets 0
scalar tls.node[22].nic.mac1609_4 ReceivedBroadcasts 0
scalar tls.node[22].nic.mac1609_4 SentPackets 0
scalar tls.node[22].nic.mac1609_4 SentAcknowledgements 0
scalar tls.node[22].nic.mac1609_4 RetriesExceeded 0
scalar tls.node[22].nic.mac1609_4 SNIRLostPackets 8
scalar tls.node[22].nic.mac1609_4 RXTXLostPackets 0
scalar tls.node[22].nic.mac1609_4 TotalLostPackets 8
scalar tls.node[22].nic.mac1609_4 DroppedPacketsInMac 0
scalar tls.node[22].nic.mac1609_4 TooLittleTime 0
scalar tls.node[22].nic.mac1609_4 TimesIntoBackoff 0
scalar tls.node[22].nic.mac1609_4 SlotsBackoff 0
scalar tls.node[22].nic.mac1609_4 NumInternalContention 0
scalar tls.node[22].nic.mac1609_4 totalBusyTime 0.001856
scalar tls.node[22].nic.mac1609_4 retriesExceeded:count 0
attr source org_car2x_veins_modules_mac_sigRetriesExceeded
scalar tls.node[22].nic.mac1609_4 sentAcks:count 0
attr source org_car2x_veins_modules_mac_sigSentAck
scalar tls.node[22].nic.mac1609_4 sentPackets:count 0
attr source org_car2x_veins_modules_mac_sigSentPacket
scalar tls.node[22].nic.mac1609_4 collisions:count 0
attr source org_car2x_veins_modules_mac_sigCollision
scalar tls.node[22].nic.mac1609_4 channelBusy:timeavg 1.0368715083799e-05
attr source org_car2x_veins_modules_mac_sigChannelBusy
scalar tls.node[22].veinsmobility startTime 91
scalar tls.node[22].veinsmobility totalTime 178
scalar tls.node[22].veinsmobility stopTime 270
scalar tls.node[22].veinsmobility minSpeed 0
scalar tls.node[22].veinsmobility maxSpeed 24.549386732269
scalar tls.node[22].veinsmobility totalDistance 2616.7665816619
scalar tls.node[22].veinsmobility totalCO2Emission 673.82868453358
scalar tls.node[32].appl generatedWSMs 0
scalar tls.node[32].appl receivedWSMs 0
scalar tls.node[32].appl generatedBSMs 0
scalar tls.node[32].appl receivedBSMs 0
scalar tls.node[32].appl generatedWSAs 0
scalar tls.node[32].appl receivedWSAs 0
scalar tls.node[32].nic.phy80211p busyTime 0
scalar tls.node[32].nic.mac1609_4 ReceivedUnicastPackets 0
scalar tls.node[32].nic.mac1609_4 ReceivedBroadcasts 0
scalar tls.node[32].nic.mac1609_4 SentPackets 0
scalar tls.node[32].nic.mac1609_4 SentAcknowledgements 0
scalar tls.node[32].nic.mac1609_4 RetriesExceeded 0
scalar tls.node[32].nic.mac1609_4 SNIRLostPackets 0
scalar tls.node[32].nic.mac1609_4 RXTXLostPackets 0
scalar tls.node[32].nic.mac1609_4 TotalLostPackets 0
scalar tls.node[32].nic.mac1609_4 DroppedPacketsInMac 0
scalar tls.node[32].nic.mac1609_4 TooLittleTime 0
scalar tls.node[32].nic.mac1609_4 TimesIntoBackoff 0
scalar tls.node[32].nic.mac1609_4 SlotsBackoff 0
scalar tls.node[32].nic.mac1609_4 NumInternalContention 0
scalar tls.node[32].nic.mac1609_4 totalBusyTime 0
scalar tls.node[32].nic.mac1609_4 retriesExceeded:count 0
attr source org_car2x_veins_modules_mac_sigRetriesExceeded
scalar tls.node[32].nic.mac1609_4 sentAcks:count 0
attr source org_car2x_veins_modules_mac_sigSentAck
scalar tls.node[32].nic.mac1609_4 sentPackets:count 0
attr source org_car2x_veins_modules_mac_sigSentPacket
scalar tls.node[32].nic.mac1609_4 collisions:count 0
attr source org_car2x_veins_modules_mac_sigCollision
scalar tls.node[32].nic.mac1609_4 channelBusy:timeavg 0
attr source org_car2x_veins_modules_mac_sigChannelBusy
scalar tls.node[32].veinsmobility startTime 131
scalar tls.node[32].veinsmobility totalTime 138
scalar tls.node[32].veinsmobility stopTime 270
scalar tls.node[32].veinsmobility minSpeed 4.3933838498645
scalar tls.node[32].veinsmobility maxSpeed 33.037928034703
scalar tls.node[32].veinsmobility totalDistance 3000.9047138019
scalar tls.node[32].veinsmobility totalCO2Emission 767.43433757503
scalar tls.node[36].appl generatedWSMs 0
scalar tls.node[36].appl receivedWSMs 0
scalar tls.node[36].appl generatedBSMs 0
scalar tls.node[36].appl receivedBSMs 0
scalar tls.node[36].appl generatedWSAs 0
scalar tls.node[36].appl receivedWSAs 0
scalar tls.node[36].nic.phy80211p busyTime 0
scalar tls.node[36].nic.mac1609_4 ReceivedUnicastPackets 0
scalar tls.node[36].nic.mac1609_4 ReceivedBroadcasts 0
scalar tls.node[36].nic.mac1609_4 SentPackets 0
scalar tls.node[36].nic.mac1609_4 SentAcknowledgements 0
scalar tls.node[36].nic.mac1609_4 RetriesExceeded 0
scalar tls.node[36].nic.mac1609_4 SNIRLostPackets 0
scalar tls.node[36].nic.mac1609_4 RXTXLostPackets 0
scalar tls.node[36].nic.mac1609_4 TotalLostPackets 0
scalar tls.node[36].nic.mac1609_4 DroppedPacketsInMac 0
scalar tls.node[36].nic.mac1609_4 TooLittleTime 0
scalar tls.node[36].nic.mac1609_4 TimesIntoBackoff 0
scalar tls.node[36].nic.mac1609_4 SlotsBackoff 0
scalar tls.node[36].nic.mac1609_4 NumInternalContention 0
scalar tls.node[36].nic.mac1609_4 totalBusyTime 0
scalar tls.node[36].nic.mac1609_4 retriesExceeded:count 0
attr source org_car2x_veins_modules_mac_sigRetriesExceeded
scalar tls.node[36].nic.mac1609_4 sentAcks:count 0
attr source org_car2x_veins_modules_mac_sigSentAck
scalar tls.node[36].nic.mac1609_4 sentPackets:count 0
attr source org_car2x_veins_modules_mac_sigSentPacket
scalar tls.node[36].nic.mac1609_4 collisions:count 0
attr source org_car2x_veins_modules_mac_sigCollision
scalar tls.node[36].nic.mac1609_4 channelBusy:timeavg 0
attr source org_car2x_veins_modules_mac_sigChannelBusy
scalar tls.node[36].veinsmobility startTime 154
scalar tls.node[36].veinsmobility totalTime 117
scalar tls.node[36].veinsmobility stopTime 272
scalar tls.node[36].veinsmobility minSpeed 2.1898296759231
scalar tls.node[36].veinsmobility maxSpeed 31.339075826599
scalar tls.node[36].veinsmobility totalDistance 2161.6637093798
scalar tls.node[36].veinsmobility totalCO2Emission 703.61978515548
scalar tls.node[46].appl generatedWSMs 0
scalar tls.node[46].appl receivedWSMs 0
scalar tls.node[46].appl generatedBSMs 0
scalar tls.node[46].appl receivedBSMs 0
scalar tls.node[46].appl generatedWSAs 0
scalar tls.node[46].appl receivedWSAs 0
scalar tls.node[46].nic.phy80211p busyTime 2.2212765957447e-05
scalar tls.node[46].nic.mac1609_4 ReceivedUnicastPackets 0
scalar tls.node[46].nic.mac1609_4 ReceivedBroadcasts 0
scalar tls.node[46].nic.mac1609_4 SentPackets 0
scalar tls.node[46].nic.mac1609_4 SentAcknowledgements 0
scalar tls.node[46].nic.mac1609_4 RetriesExceeded 0
scalar tls.node[46].nic.mac1609_4 SNIRLostPackets 9
scalar tls.node[46].nic.mac1609_4 RXTXLostPackets 0
scalar tls.node[46].nic.mac1609_4 TotalLostPackets 9
scalar tls.node[46].nic.mac1609_4 DroppedPacketsInMac 0
scalar tls.node[46].nic.mac1609_4 TooLittleTime 0
scalar tls.node[46].nic.mac1609_4 TimesIntoBackoff 0
scalar tls.node[46].nic.mac1609_4 SlotsBackoff 0
scalar tls.node[46].nic.mac1609_4 NumInternalContention 0
scalar tls.node[46].nic.mac1609_4 totalBusyTime 0.002088
scalar tls.node[46].nic.mac1609_4 retriesExceeded:count 0
attr source org_car2x_veins_modules_mac_sigRetriesExceeded
scalar tls.node[46].nic.mac1609_4 sentAcks:count 0
attr source org_car2x_veins_modules_mac_sigSentAck
scalar tls.node[46].nic.mac1609_4 sentPackets:count 0
attr source org_car2x_veins_modules_mac_sigSentPacket
scalar tls.node[46].nic.mac1609_4 collisions:count 0
attr source org_car2x_veins_modules_mac_sigCollision
scalar tls.node[46].nic.mac1609_4 channelBusy:timeavg 2.2212765957447e-05
attr source org_car2x_veins_modules_mac_sigChannelBusy
scalar tls.node[46].veinsmobility startTime 197
scalar tls.node[46].veinsmobility totalTime 93
scalar tls.node[46].veinsmobility stopTime 291
scalar tls.node[46].veinsmobility minSpeed 2.5354192544283
scalar tls.node[46].veinsmobility maxSpeed 14.073119448166
scalar tls.node[46].veinsmobility totalDistance 828.29182601348
scalar tls.node[46].veinsmobility totalCO2Emission 279.2773740605
scalar tls.node[38].appl generatedWSMs 0
scalar tls.node[38].appl receivedWSMs 0
scalar tls.node[38].appl generatedBSMs 0
scalar tls.node[38].appl receivedBSMs 0
scalar tls.node[38].appl generatedWSAs 0
scalar tls.node[38].appl receivedWSAs 0
scalar tls.node[38].nic.phy80211p busyTime 1.280981595092e-05
scalar tls.node[38].nic.mac1609_4 ReceivedUnicastPackets 0
scalar tls.node[38].nic.mac1609_4 ReceivedBroadcasts 0
scalar tls.node[38].nic.mac1609_4 SentPackets 0
scalar tls.node[38].nic.mac1609_4 SentAcknowledgements 0
scalar tls.node[38].nic.mac1609_4 RetriesExceeded 0
scalar tls.node[38].nic.mac1609_4 SNIRLostPackets 9
scalar tls.node[38].nic.mac1609_4 RXTXLostPackets 0
scalar tls.node[38].nic.mac1609_4 TotalLostPackets 9
scalar tls.node[38].nic.mac1609_4 DroppedPacketsInMac 0
scalar tls.node[38].nic.mac1609_4 TooLittleTime 0
scalar tls.node[38].nic.mac1609_4 TimesIntoBackoff 0
scalar tls.node[38].nic.mac1609_4 SlotsBackoff 0
scalar tls.node[38].nic.mac1609_4 NumInternalContention 0
scalar tls.node[38].nic.mac1609_4 totalBusyTime 0.002088
scalar tls.node[38].nic.mac1609_4 retriesExceeded:count 0
attr source org_car2x_veins_modules_mac_sigRetriesExceeded
scalar tls.node[38].nic.mac1609_4 sentAcks:count 0
attr source org_car2x_veins_modules_mac_sigSentAck
scalar tls.node[38].nic.mac1609_4 sentPackets:count 0
attr source org_car2x_veins_modules_mac_sigSentPacket
scalar tls.node[38].nic.mac1609_4 collisions:count 0
attr source org_car2x_veins_modules_mac_sigCollision
scalar tls.node[38].nic.mac1609_4 channelBusy:timeavg 1.280981595092e-05
attr source org_car2x_veins_modules_mac_sigChannelBusy
scalar tls.node[38].veinsmobility startTime 164
scalar tls.node[38].veinsmobility totalTime 162
scalar tls.node[38].veinsmobility stopTime 327
scalar tls.node[38].veinsmobility minSpeed 0
scalar tls.node[38].veinsmobility maxSpeed 24.456343842028
scalar tls.node[38].veinsmobility totalDistance 1975.7746755278
scalar tls.node[38].veinsmobility totalCO2Emission 507.79426620769
scalar tls.node[34].appl generatedWSMs 0
scalar tls.node[34].appl receivedWSMs 9
scalar tls.node[34].appl generatedBSMs 0
scalar tls.node[34].appl receivedBSMs 0
scalar tls.node[34].appl generatedWSAs 0
scalar tls.node[34].appl receivedWSAs 0
scalar tls.node[34].nic.phy80211p busyTime 1.1225806451613e-05
scalar tls.node[34].nic.mac1609_4 ReceivedUnicastPackets 0
scalar tls.node[34].nic.mac1609_4 ReceivedBroadcasts 9
scalar tls.node[34].nic.mac1609_4 SentPackets 0
scalar tls.node[34].nic.mac1609_4 SentAcknowledgements 0
scalar tls.node[34].nic.mac1609_4 RetriesExceeded 0
scalar tls.node[34].nic.mac1609_4 SNIRLostPackets 0
scalar tls.node[34].nic.mac1609_4 RXTXLostPackets 0
scalar tls.node[34].nic.mac1609_4 TotalLostPackets 0
scalar tls.node[34].nic.mac1609_4 DroppedPacketsInMac 0
scalar tls.node[34].nic.mac1609_4 TooLittleTime 0
scalar tls.node[34].nic.mac1609_4 TimesIntoBackoff 0
scalar tls.node[34].nic.mac1609_4 SlotsBackoff 0
scalar tls.node[34].nic.mac1609_4 NumInternalContention 0
scalar tls.node[34].nic.mac1609_4 totalBusyTime 0.002088
scalar tls.node[34].nic.mac1609_4 retriesExceeded:count 0
attr source org_car2x_veins_modules_mac_sigRetriesExceeded
scalar tls.node[34].nic.mac1609_4 sentAcks:count 0
attr source org_car2x_veins_modules_mac_sigSentAck
scalar tls.node[34].nic.mac1609_4 sentPackets:count 0
attr source org_car2x_veins_modules_mac_sigSentPacket
scalar tls.node[34].nic.mac1609_4 collisions:count 0
attr source org_car2x_veins_modules_mac_sigCollision
scalar tls.node[34].nic.mac1609_4 channelBusy:timeavg 1.1225806451613e-05
attr source org_car2x_veins_modules_mac_sigChannelBusy
scalar tls.node[34].veinsmobility startTime 144
scalar tls.node[34].veinsmobility totalTime 185
scalar tls.node[34].veinsmobility stopTime 330
scalar tls.node[34].veinsmobility minSpeed 0
scalar tls.node[34].veinsmobility maxSpeed 16.376726526577
scalar tls.node[34].veinsmobility totalDistance 1411.451488035
scalar tls.node[34].veinsmobility totalCO2Emission 448.43020785043
scalar tls.node[28].appl generatedWSMs 0
scalar tls.node[28].appl receivedWSMs 9
scalar tls.node[28].appl generatedBSMs 0
scalar tls.node[28].appl receivedBSMs 0
scalar tls.node[28].appl generatedWSAs 0
scalar tls.node[28].appl receivedWSAs 0
scalar tls.node[28].nic.phy80211p busyTime 1.8175115207373e-05
scalar tls.node[28].nic.mac1609_4 ReceivedUnicastPackets 0
scalar tls.node[28].nic.mac1609_4 ReceivedBroadcasts 9
scalar tls.node[28].nic.mac1609_4 SentPackets 0
scalar tls.node[28].nic.mac1609_4 SentAcknowledgements 0
scalar tls.node[28].nic.mac1609_4 RetriesExceeded 0
scalar tls.node[28].nic.mac1609_4 SNIRLostPackets 8
scalar tls.node[28].nic.mac1609_4 RXTXLostPackets 0
scalar tls.node[28].nic.mac1609_4 TotalLostPackets 8
scalar tls.node[28].nic.mac1609_4 DroppedPacketsInMac 0
scalar tls.node[28].nic.mac1609_4 TooLittleTime 0
scalar tls.node[28].nic.mac1609_4 TimesIntoBackoff 0
scalar tls.node[28].nic.mac1609_4 SlotsBackoff 0
scalar tls.node[28].nic.mac1609_4 NumInternalContention 0
scalar tls.node[28].nic.mac1609_4 totalBusyTime 0.003944
scalar tls.node[28].nic.mac1609_4 retriesExceeded:count 0
attr source org_car2x_veins_modules_mac_sigRetriesExceeded
scalar tls.node[28].nic.mac1609_4 sentAcks:count 0
attr source org_car2x_veins_modules_mac_sigSentAck
scalar tls.node[28].nic.mac1609_4 sentPackets:count 0
attr source org_car2x_veins_modules_mac_sigSentPacket
scalar tls.node[28].nic.mac1609_4 collisions:count 0
attr source org_car2x_veins_modules_mac_sigCollision
scalar tls.node[28].nic.mac1609_4 channelBusy:timeavg 1.8175115207373e-05
attr source org_car2x_veins_modules_mac_sigChannelBusy
scalar tls.node[28].veinsmobility startTime 114
scalar tls.node[28].veinsmobility totalTime 216
scalar tls.node[28].veinsmobility stopTime 331
scalar tls.node[28].veinsmobility minSpeed 0
scalar tls.node[28].veinsmobility maxSpeed 26.220820321326
scalar tls.node[28].veinsmobility totalDistance 1846.0826689639
scalar tls.node[28].veinsmobility totalCO2Emission 630.4850025855
scalar tls.node[54].appl generatedWSMs 0
scalar tls.node[54].appl receivedWSMs 0
scalar tls.node[54].appl generatedBSMs 0
scalar tls.node[54].appl receivedBSMs 0
scalar tls.node[54].appl generatedWSAs 0
scalar tls.node[54].appl receivedWSAs 0
scalar tls.node[54].nic.phy80211p busyTime 2.2695652173913e-05
scalar tls.node[54].nic.mac1609_4 ReceivedUnicastPackets 0
scalar tls.node[54].nic.mac1609_4 ReceivedBroadcasts 0
scalar tls.node[54].nic.mac1609_4 SentPackets 0
scalar tls.node[54].nic.mac1609_4 SentAcknowledgements 0
scalar tls.node[54].nic.mac1609_4 RetriesExceeded 0
scalar tls.node[54].nic.mac1609_4 SNIRLostPackets 9
scalar tls.node[54].nic.mac1609_4 RXTXLostPackets 0
scalar tls.node[54].nic.mac1609_4 TotalLostPackets 9
scalar tls.node[54].nic.mac1609_4 DroppedPacketsInMac 0
scalar tls.node[54].nic.mac1609_4 TooLittleTime 0
scalar tls.node[54].nic.mac1609_4 TimesIntoBackoff 0
scalar tls.node[54].nic.mac1609_4 SlotsBackoff 0
scalar tls.node[54].nic.mac1609_4 NumInternalContention 0
scalar tls.node[54].nic.mac1609_4 totalBusyTime 0.002088
scalar tls.node[54].nic.mac1609_4 retriesExceeded:count 0
attr source org_car2x_veins_modules_mac_sigRetriesExceeded
scalar tls.node[54].nic.mac1609_4 sentAcks:count 0
attr source org_car2x_veins_modules_mac_sigSentAck
scalar tls.node[54].nic.mac1609_4 sentPackets:count 0
attr source org_car2x_veins_modules_mac_sigSentPacket
scalar tls.node[54].nic.mac1609_4 collisions:count 0
attr source org_car2x_veins_modules_mac_sigCollision
scalar tls.node[54].nic.mac1609_4 channelBusy:timeavg 2.2695652173913e-05
attr source org_car2x_veins_modules_mac_sigChannelBusy
scalar tls.node[54].veinsmobility startTime 240
scalar tls.node[54].veinsmobility totalTime 91
scalar tls.node[54].veinsmobility stopTime 332
scalar tls.node[54].veinsmobility minSpeed 4.0223132963357
scalar tls.node[54].veinsmobility maxSpeed 26.376121185378
scalar tls.node[54].veinsmobility totalDistance 1059.2346939398
scalar tls.node[54].veinsmobility totalCO2Emission 365.50680014255
scalar tls.node[35].appl generatedWSMs 0
scalar tls.node[35].appl receivedWSMs 9
scalar tls.node[35].appl generatedBSMs 0
scalar tls.node[35].appl receivedBSMs 0
scalar tls.node[35].appl generatedWSAs 0
scalar tls.node[35].appl receivedWSAs 0
scalar tls.node[35].nic.phy80211p busyTime 1.0931937172775e-05
scalar tls.node[35].nic.mac1609_4 ReceivedUnicastPackets 0
scalar tls.node[35].nic.mac1609_4 ReceivedBroadcasts 9
scalar tls.node[35].nic.mac1609_4 SentPackets 0
scalar tls.node[35].nic.mac1609_4 SentAcknowledgements 0
scalar tls.node[35].nic.mac1609_4 RetriesExceeded 0
scalar tls.node[35].nic.mac1609_4 SNIRLostPackets 0
scalar tls.node[35].nic.mac1609_4 RXTXLostPackets 0
scalar tls.node[35].nic.mac1609_4 TotalLostPackets 0
scalar tls.node[35].nic.mac1609_4 DroppedPacketsInMac 0
scalar tls.node[35].nic.mac1609_4 TooLittleTime 0
scalar tls.node[35].nic.mac1609_4 TimesIntoBackoff 0
scalar tls.node[35].nic.mac1609_4 SlotsBackoff 0
scalar tls.node[35].nic.mac1609_4 NumInternalContention 0
scalar tls.node[35].nic.mac1609_4 totalBusyTime 0.002088
scalar tls.node[35].nic.mac1609_4 retriesExceeded:count 0
attr source org_car2x_veins_modules_mac_sigRetriesExceeded
scalar tls.node[35].nic.mac1609_4 sentAcks:count 0
attr source org_car2x_veins_modules_mac_sigSentAck
scalar tls.node[35].nic.mac1609_4 sentPackets:count 0
attr source org_car2x_veins_modules_mac_sigSentPacket
scalar tls.node[35].nic.mac1609_4 collisions:count 0
attr source org_car2x_veins_modules_mac_sigCollision
scalar tls.node[35].nic.mac1609_4 channelBusy:timeavg 1.0931937172775e-05
attr source org_car2x_veins_modules_mac_sigChannelBusy
scalar tls.node[35].veinsmobility startTime 148
scalar tls.node[35].veinsmobility totalTime 190
scalar tls.node[35].veinsmobility stopTime 339
scalar tls.node[35].veinsmobility minSpeed 0
scalar tls.node[35].veinsmobility maxSpeed 17.108072465716
scalar tls.node[35].veinsmobility totalDistance 1395.7584631971
scalar tls.node[35].veinsmobility totalCO2Emission 408.26405433867
scalar tls.node[44].appl generatedWSMs 9
scalar tls.node[44].appl receivedWSMs 0
scalar tls.node[44].appl generatedBSMs 0
scalar tls.node[44].appl receivedBSMs 0
scalar tls.node[44].appl generatedWSAs 0
scalar tls.node[44].appl receivedWSAs 0
scalar tls.node[44].nic.phy80211p busyTime 0
scalar tls.node[44].nic.mac1609_4 ReceivedUnicastPackets 0
scalar tls.node[44].nic.mac1609_4 ReceivedBroadcasts 0
scalar tls.node[44].nic.mac1609_4 SentPackets 9
scalar tls.node[44].nic.mac1609_4 SentAcknowledgements 0
scalar tls.node[44].nic.mac1609_4 RetriesExceeded 0
scalar tls.node[44].nic.mac1609_4 SNIRLostPackets 0
scalar tls.node[44].nic.mac1609_4 RXTXLostPackets 0
scalar tls.node[44].nic.mac1609_4 TotalLostPackets 0
scalar tls.node[44].nic.mac1609_4 DroppedPacketsInMac 0
scalar tls.node[44].nic.mac1609_4 TooLittleTime 0
scalar tls.node[44].nic.mac1609_4 TimesIntoBackoff 9
scalar tls.node[44].nic.mac1609_4 SlotsBackoff 17
scalar tls.node[44].nic.mac1609_4 NumInternalContention 0
scalar tls.node[44].nic.mac1609_4 totalBusyTime 0.002097
scalar tls.node[44].nic.mac1609_4 retriesExceeded:count 0
attr source org_car2x_veins_modules_mac_sigRetriesExceeded
scalar tls.node[44].nic.mac1609_4 sentAcks:count 0
attr source org_car2x_veins_modules_mac_sigSentAck
scalar tls.node[44].nic.mac1609_4 sentPackets:count 9
attr source org_car2x_veins_modules_mac_sigSentPacket
scalar tls.node[44].nic.mac1609_4 collisions:count 0
attr source org_car2x_veins_modules_mac_sigCollision
scalar tls.node[44].nic.mac1609_4 channelBusy:timeavg 1.3616883116883e-05
attr source org_car2x_veins_modules_mac_sigChannelBusy
scalar tls.node[44].veinsmobility startTime 191
scalar tls.node[44].veinsmobility totalTime 153
scalar tls.node[44].veinsmobility stopTime 345
scalar tls.node[44].veinsmobility minSpeed 4.288319246741
scalar tls.node[44].veinsmobility maxSpeed 27.134553995526
scalar tls.node[44].veinsmobility totalDistance 2006.656782633
scalar tls.node[44].veinsmobility totalCO2Emission 615.25213726741
scalar tls.node[40].appl generatedWSMs 0
scalar tls.node[40].appl receivedWSMs 9
scalar tls.node[40].appl generatedBSMs 0
scalar tls.node[40].appl receivedBSMs 0
scalar tls.node[40].appl generatedWSAs 0
scalar tls.node[40].appl receivedWSAs 0
scalar tls.node[40].nic.phy80211p busyTime 1.2210526315789e-05
scalar tls.node[40].nic.mac1609_4 ReceivedUnicastPackets 0
scalar tls.node[40].nic.mac1609_4 ReceivedBroadcasts 9
scalar tls.node[40].nic.mac1609_4 SentPackets 0
scalar tls.node[40].nic.mac1609_4 SentAcknowledgements 0
scalar tls.node[40].nic.mac1609_4 RetriesExceeded 0
scalar tls.node[40].nic.mac1609_4 SNIRLostPackets 0
scalar tls.node[40].nic.mac1609_4 RXTXLostPackets 0
scalar tls.node[40].nic.mac1609_4 TotalLostPackets 0
scalar tls.node[40].nic.mac1609_4 DroppedPacketsInMac 0
scalar tls.node[40].nic.mac1609_4 TooLittleTime 0
scalar tls.node[40].nic.mac1609_4 TimesIntoBackoff 0
scalar tls.node[40].nic.mac1609_4 SlotsBackoff 0
scalar tls.node[40].nic.mac1609_4 NumInternalContention 0
scalar tls.node[40].nic.mac1609_4 totalBusyTime 0.002088
scalar tls.node[40].nic.mac1609_4 retriesExceeded:count 0
attr source org_car2x_veins_modules_mac_sigRetriesExceeded
scalar tls.node[40].nic.mac1609_4 sentAcks:count 0
attr source org_car2x_veins_modules_mac_sigSentAck
scalar tls.node[40].nic.mac1609_4 sentPackets:count 0
attr source org_car2x_veins_modules_mac_sigSentPacket
scalar tls.node[40].nic.mac1609_4 collisions:count 0
attr source org_car2x_veins_modules_mac_sigCollision
scalar tls.node[40].nic.mac1609_4 channelBusy:timeavg 1.2210526315789e-05
attr source org_car2x_veins_modules_mac_sigChannelBusy
scalar tls.node[40].veinsmobility startTime 177
scalar tls.node[40].veinsmobility totalTime 170
scalar tls.node[40].veinsmobility stopTime 348
scalar tls.node[40].veinsmobility minSpeed 0.65578875250006
scalar tls.node[40].veinsmobility maxSpeed 23.325545330016
scalar tls.node[40].veinsmobility totalDistance 2328.6258646751
scalar tls.node[40].veinsmobility totalCO2Emission 554.10478553366
scalar tls.node[43].appl generatedWSMs 0
scalar tls.node[43].appl receivedWSMs 9
scalar tls.node[43].appl generatedBSMs 0
scalar tls.node[43].appl receivedBSMs 0
scalar tls.node[43].appl generatedWSAs 0
scalar tls.node[43].appl receivedWSAs 0
scalar tls.node[43].nic.phy80211p busyTime 1.2888888888889e-05
scalar tls.node[43].nic.mac1609_4 ReceivedUnicastPackets 0
scalar tls.node[43].nic.mac1609_4 ReceivedBroadcasts 9
scalar tls.node[43].nic.mac1609_4 SentPackets 0
scalar tls.node[43].nic.mac1609_4 SentAcknowledgements 0
scalar tls.node[43].nic.mac1609_4 RetriesExceeded 0
scalar tls.node[43].nic.mac1609_4 SNIRLostPackets 0
scalar tls.node[43].nic.mac1609_4 RXTXLostPackets 0
scalar tls.node[43].nic.mac1609_4 TotalLostPackets 0
scalar tls.node[43].nic.mac1609_4 DroppedPacketsInMac 0
scalar tls.node[43].nic.mac1609_4 TooLittleTime 0
scalar tls.node[43].nic.mac1609_4 TimesIntoBackoff 0
scalar tls.node[43].nic.mac1609_4 SlotsBackoff 0
scalar tls.node[43].nic.mac1609_4 NumInternalContention 0
scalar tls.node[43].nic.mac1609_4 totalBusyTime 0.002088
scalar tls.node[43].nic.mac1609_4 retriesExceeded:count 0
attr source org_car2x_veins_modules_mac_sigRetriesExceeded
scalar tls.node[43].nic.mac1609_4 sentAcks:count 0
attr source org_car2x_veins_modules_mac_sigSentAck
scalar tls.node[43].nic.mac1609_4 sentPackets:count 0
attr source org_car2x_veins_modules_mac_sigSentPacket
scalar tls.node[43].nic.mac1609_4 collisions:count 0
attr source org_car2x_veins_modules_mac_sigCollision
scalar tls.node[43].nic.mac1609_4 channelBusy:timeavg 1.2888888888889e-05
attr source org_car2x_veins_modules_mac_sigChannelBusy
scalar tls.node[43].veinsmobility startTime 187
scalar tls.node[43].veinsmobility totalTime 161
scalar tls.node[43].veinsmobility stopTime 349
scalar tls.node[43].veinsmobility minSpeed 0
scalar tls.node[43].veinsmobility maxSpeed 24.807610588765
scalar tls.node[43].veinsmobility totalDistance 1619.4640938158
scalar tls.node[43].veinsmobility totalCO2Emission 473.95020056093
scalar tls.node[47].appl generatedWSMs 0
scalar tls.node[47].appl receivedWSMs 9
scalar tls.node[47].appl generatedBSMs 0
scalar tls.node[47].appl receivedBSMs 0
scalar tls.node[47].appl generatedWSAs 0
scalar tls.node[47].appl receivedWSAs 0
scalar tls.node[47].nic.phy80211p busyTime 1.4108108108108e-05
scalar tls.node[47].nic.mac1609_4 ReceivedUnicastPackets 0
scalar tls.node[47].nic.mac1609_4 ReceivedBroadcasts 9
scalar tls.node[47].nic.mac1609_4 SentPackets 0
scalar tls.node[47].nic.mac1609_4 SentAcknowledgements 0
scalar tls.node[47].nic.mac1609_4 RetriesExceeded 0
scalar tls.node[47].nic.mac1609_4 SNIRLostPackets 0
scalar tls.node[47].nic.mac1609_4 RXTXLostPackets 0
scalar tls.node[47].nic.mac1609_4 TotalLostPackets 0
scalar tls.node[47].nic.mac1609_4 DroppedPacketsInMac 0
scalar tls.node[47].nic.mac1609_4 TooLittleTime 0
scalar tls.node[47].nic.mac1609_4 TimesIntoBackoff 0
scalar tls.node[47].nic.mac1609_4 SlotsBackoff 0
scalar tls.node[47].nic.mac1609_4 NumInternalContention 0
scalar tls.node[47].nic.mac1609_4 totalBusyTime 0.002088
scalar tls.node[47].nic.mac1609_4 retriesExceeded:count 0
attr source org_car2x_veins_modules_mac_sigRetriesExceeded
scalar tls.node[47].nic.mac1609_4 sentAcks:count 0
attr source org_car2x_veins_modules_mac_sigSentAck
scalar tls.node[47].nic.mac1609_4 sentPackets:count 0
attr source org_car2x_veins_modules_mac_sigSentPacket
scalar tls.node[47].nic.mac1609_4 collisions:count 0
attr source org_car2x_veins_modules_mac_sigCollision
scalar tls.node[47].nic.mac1609_4 channelBusy:timeavg 1.4108108108108e-05
attr source org_car2x_veins_modules_mac_sigChannelBusy
scalar tls.node[47].veinsmobility startTime 207
scalar tls.node[47].veinsmobility totalTime 147
scalar tls.node[47].veinsmobility stopTime 355
scalar tls.node[47].veinsmobility minSpeed 0
scalar tls.node[47].veinsmobility maxSpeed 32.810678390276
scalar tls.node[47].veinsmobility totalDistance 2717.437293872
scalar tls.node[47].veinsmobility totalCO2Emission 708.03795611415
scalar tls.node[62].appl generatedWSMs 0
scalar tls.node[62].appl receivedWSMs 3
scalar tls.node[62].appl generatedBSMs 0
scalar tls.node[62].appl receivedBSMs 0
scalar tls.node[62].appl generatedWSAs 0
scalar tls.node[62].appl receivedWSAs 0
scalar tls.node[62].nic.phy80211p busyTime 8.7e-06
scalar tls.node[62].nic.mac1609_4 ReceivedUnicastPackets 0
scalar tls.node[62].nic.mac1609_4 ReceivedBroadcasts 3
scalar tls.node[62].nic.mac1609_4 SentPackets 0
scalar tls.node[62].nic.mac1609_4 SentAcknowledgements 0
scalar tls.node[62].nic.mac1609_4 RetriesExceeded 0
scalar tls.node[62].nic.mac1609_4 SNIRLostPackets 0
scalar tls.node[62].nic.mac1609_4 RXTXLostPackets 0
scalar tls.node[62].nic.mac1609_4 TotalLostPackets 0
scalar tls.node[62].nic.mac1609_4 DroppedPacketsInMac 0
scalar tls.node[62].nic.mac1609_4 TooLittleTime 0
scalar tls.node[62].nic.mac1609_4 TimesIntoBackoff 0
scalar tls.node[62].nic.mac1609_4 SlotsBackoff 0
scalar tls.node[62].nic.mac1609_4 NumInternalContention 0
scalar tls.node[62].nic.mac1609_4 totalBusyTime 0.000696
scalar tls.node[62].nic.mac1609_4 retriesExceeded:count 0
attr source org_car2x_veins_modules_mac_sigRetriesExceeded
scalar tls.node[62].nic.mac1609_4 sentAcks:count 0
attr source org_car2x_veins_modules_mac_sigSentAck
scalar tls.node[62].nic.mac1609_4 sentPackets:count 0
attr source org_car2x_veins_modules_mac_sigSentPacket
scalar tls.node[62].nic.mac1609_4 collisions:count 0
attr source org_car2x_veins_modules_mac_sigCollision
scalar tls.node[62].nic.mac1609_4 channelBusy:timeavg 8.7e-06
attr source org_car2x_veins_modules_mac_sigChannelBusy
scalar tls.node[62].veinsmobility startTime 278
scalar tls.node[62].veinsmobility totalTime 79
scalar tls.node[62].veinsmobility stopTime 358
scalar tls.node[62].veinsmobility minSpeed 2.1833568494534
scalar tls.node[62].veinsmobility maxSpeed 24.341339523284
scalar tls.node[62].veinsmobility totalDistance 1068.0625712043
scalar tls.node[62].veinsmobility totalCO2Emission 349.74438433735
scalar tls.node[13].appl generatedWSMs 0
scalar tls.node[13].appl receivedWSMs 17
scalar tls.node[13].appl generatedBSMs 0
[...]
scalar tls.node[132].appl generatedBSMs 0
scalar tls.node[132].appl receivedBSMs 0
scalar tls.node[132].appl generatedWSAs 0
scalar tls.node[132].appl receivedWSAs 0
scalar tls.node[132].nic.phy80211p busyTime 0
scalar tls.node[132].nic.mac1609_4 ReceivedUnicastPackets 0
scalar tls.node[132].nic.mac1609_4 ReceivedBroadcasts 0
scalar tls.node[132].nic.mac1609_4 SentPackets 0
scalar tls.node[132].nic.mac1609_4 SentAcknowledgements 0
scalar tls.node[132].nic.mac1609_4 RetriesExceeded 0
scalar tls.node[132].nic.mac1609_4 SNIRLostPackets 0
scalar tls.node[132].nic.mac1609_4 RXTXLostPackets 0
scalar tls.node[132].nic.mac1609_4 TotalLostPackets 0
scalar tls.node[132].nic.mac1609_4 DroppedPacketsInMac 0
scalar tls.node[132].nic.mac1609_4 TooLittleTime 0
scalar tls.node[132].nic.mac1609_4 TimesIntoBackoff 0
scalar tls.node[132].nic.mac1609_4 SlotsBackoff 0
scalar tls.node[132].nic.mac1609_4 NumInternalContention 0
scalar tls.node[132].nic.mac1609_4 totalBusyTime 0
scalar tls.node[132].nic.mac1609_4 retriesExceeded:count 0
attr source org_car2x_veins_modules_mac_sigRetriesExceeded
scalar tls.node[132].nic.mac1609_4 sentAcks:count 0
attr source org_car2x_veins_modules_mac_sigSentAck
scalar tls.node[132].nic.mac1609_4 sentPackets:count 0
attr source org_car2x_veins_modules_mac_sigSentPacket
scalar tls.node[132].nic.mac1609_4 collisions:count 0
attr source org_car2x_veins_modules_mac_sigCollision
scalar tls.node[132].nic.mac1609_4 channelBusy:timeavg 0
attr source org_car2x_veins_modules_mac_sigChannelBusy
scalar tls.node[132].veinsmobility startTime 592
scalar tls.node[132].veinsmobility totalTime 92
scalar tls.node[132].veinsmobility stopTime 685
scalar tls.node[132].veinsmobility minSpeed 0.00016077544763876
scalar tls.node[132].veinsmobility maxSpeed 14.637047717706
scalar tls.node[132].veinsmobility totalDistance 826.19962449793
scalar tls.node[132].veinsmobility totalCO2Emission 318.96028566058
scalar tls.node[85].appl generatedWSMs 0
scalar tls.node[85].appl receivedWSMs 15
scalar tls.node[85].appl generatedBSMs 0
scalar tls.node[85].appl receivedBSMs 0
scalar tls.node[85].appl generatedWSAs 0
scalar tls.node[85].appl receivedWSAs 0
scalar tls.node[85].nic.phy80211p busyTime 1.0740740740741e-05
scalar tls.node[85].nic.mac1609_4 ReceivedUnicastPackets 0
scalar tls.node[85].nic.mac1609_4 ReceivedBroadcasts 15
scalar tls.node[85].nic.mac1609_4 SentPackets 0
scalar tls.node[85].nic.mac1609_4 SentAcknowledgements 0
scalar tls.node[85].nic.mac1609_4 RetriesExceeded 0
scalar tls.node[85].nic.mac1609_4 SNIRLostPackets 0
scalar tls.node[85].nic.mac1609_4 RXTXLostPackets 0
scalar tls.node[85].nic.mac1609_4 TotalLostPackets 0
scalar tls.node[85].nic.mac1609_4 DroppedPacketsInMac 0
scalar tls.node[85].nic.mac1609_4 TooLittleTime 0
scalar tls.node[85].nic.mac1609_4 TimesIntoBackoff 0
scalar tls.node[85].nic.mac1609_4 SlotsBackoff 0
scalar tls.node[85].nic.mac1609_4 NumInternalContention 0
scalar tls.node[85].nic.mac1609_4 totalBusyTime 0.00348
scalar tls.node[85].nic.mac1609_4 retriesExceeded:count 0
attr source org_car2x_veins_modules_mac_sigRetriesExceeded
scalar tls.node[85].nic.mac1609_4 sentAcks:count 0
attr source org_car2x_veins_modules_mac_sigSentAck
scalar tls.node[85].nic.mac1609_4 sentPackets:count 0
attr source org_car2x_veins_modules_mac_sigSentPacket
scalar tls.node[85].nic.mac1609_4 collisions:count 0
attr source org_car2x_veins_modules_mac_sigCollision
scalar tls.node[85].nic.mac1609_4 channelBusy:timeavg 1.0740740740741e-05
attr source org_car2x_veins_modules_mac_sigChannelBusy
scalar tls.node[85].veinsmobility startTime 373
scalar tls.node[85].veinsmobility totalTime 323
scalar tls.node[85].veinsmobility stopTime 697
scalar tls.node[85].veinsmobility minSpeed 0
scalar tls.node[85].veinsmobility maxSpeed 27.904764850549
scalar tls.node[85].veinsmobility totalDistance 2003.9408911464
scalar tls.node[85].veinsmobility totalCO2Emission 771.24273175833
scalar tls.node[121].appl generatedWSMs 0
scalar tls.node[121].appl receivedWSMs 0
scalar tls.node[121].appl generatedBSMs 0
scalar tls.node[121].appl receivedBSMs 0
scalar tls.node[121].appl generatedWSAs 0
scalar tls.node[121].appl receivedWSAs 0
scalar tls.node[121].nic.phy80211p busyTime 0
scalar tls.node[121].nic.mac1609_4 ReceivedUnicastPackets 0
scalar tls.node[121].nic.mac1609_4 ReceivedBroadcasts 0
scalar tls.node[121].nic.mac1609_4 SentPackets 0
scalar tls.node[121].nic.mac1609_4 SentAcknowledgements 0
scalar tls.node[121].nic.mac1609_4 RetriesExceeded 0
scalar tls.node[121].nic.mac1609_4 SNIRLostPackets 0
scalar tls.node[121].nic.mac1609_4 RXTXLostPackets 0
scalar tls.node[121].nic.mac1609_4 TotalLostPackets 0
scalar tls.node[121].nic.mac1609_4 DroppedPacketsInMac 0
scalar tls.node[121].nic.mac1609_4 TooLittleTime 0
scalar tls.node[121].nic.mac1609_4 TimesIntoBackoff 0
scalar tls.node[121].nic.mac1609_4 SlotsBackoff 0
scalar tls.node[121].nic.mac1609_4 NumInternalContention 0
scalar tls.node[121].nic.mac1609_4 totalBusyTime 0
scalar tls.node[121].nic.mac1609_4 retriesExceeded:count 0
attr source org_car2x_veins_modules_mac_sigRetriesExceeded
scalar tls.node[121].nic.mac1609_4 sentAcks:count 0
attr source org_car2x_veins_modules_mac_sigSentAck
scalar tls.node[121].nic.mac1609_4 sentPackets:count 0
attr source org_car2x_veins_modules_mac_sigSentPacket
scalar tls.node[121].nic.mac1609_4 collisions:count 0
attr source org_car2x_veins_modules_mac_sigCollision
scalar tls.node[121].nic.mac1609_4 channelBusy:timeavg 0
attr source org_car2x_veins_modules_mac_sigChannelBusy
scalar tls.node[121].veinsmobility startTime 536
scalar tls.node[121].veinsmobility totalTime 166
scalar tls.node[121].veinsmobility stopTime 703
scalar tls.node[121].veinsmobility minSpeed 0
scalar tls.node[121].veinsmobility maxSpeed 29.550543201513
scalar tls.node[121].veinsmobility totalDistance 2601.2856799382
scalar tls.node[121].veinsmobility totalCO2Emission 659.64989795475
scalar tls.node[128].appl generatedWSMs 0
scalar tls.node[128].appl receivedWSMs 0
scalar tls.node[128].appl generatedBSMs 0
scalar tls.node[128].appl receivedBSMs 0
scalar tls.node[128].appl generatedWSAs 0
scalar tls.node[128].appl receivedWSAs 0
scalar tls.node[128].nic.phy80211p busyTime 0
scalar tls.node[128].nic.mac1609_4 ReceivedUnicastPackets 0
scalar tls.node[128].nic.mac1609_4 ReceivedBroadcasts 0
scalar tls.node[128].nic.mac1609_4 SentPackets 0
scalar tls.node[128].nic.mac1609_4 SentAcknowledgements 0
scalar tls.node[128].nic.mac1609_4 RetriesExceeded 0
scalar tls.node[128].nic.mac1609_4 SNIRLostPackets 0
scalar tls.node[128].nic.mac1609_4 RXTXLostPackets 0
scalar tls.node[128].nic.mac1609_4 TotalLostPackets 0
scalar tls.node[128].nic.mac1609_4 DroppedPacketsInMac 0
scalar tls.node[128].nic.mac1609_4 TooLittleTime 0
scalar tls.node[128].nic.mac1609_4 TimesIntoBackoff 0
scalar tls.node[128].nic.mac1609_4 SlotsBackoff 0
scalar tls.node[128].nic.mac1609_4 NumInternalContention 0
scalar tls.node[128].nic.mac1609_4 totalBusyTime 0
scalar tls.node[128].nic.mac1609_4 retriesExceeded:count 0
attr source org_car2x_veins_modules_mac_sigRetriesExceeded
scalar tls.node[128].nic.mac1609_4 sentAcks:count 0
attr source org_car2x_veins_modules_mac_sigSentAck
scalar tls.node[128].nic.mac1609_4 sentPackets:count 0
attr source org_car2x_veins_modules_mac_sigSentPacket
scalar tls.node[128].nic.mac1609_4 collisions:count 0
attr source org_car2x_veins_modules_mac_sigCollision
scalar tls.node[128].nic.mac1609_4 channelBusy:timeavg 0
attr source org_car2x_veins_modules_mac_sigChannelBusy
scalar tls.node[128].veinsmobility startTime 579
scalar tls.node[128].veinsmobility totalTime 127
scalar tls.node[128].veinsmobility stopTime 707
scalar tls.node[128].veinsmobility minSpeed 0
scalar tls.node[128].veinsmobility maxSpeed 27.194129069889
scalar tls.node[128].veinsmobility totalDistance 1649.9569378664
scalar tls.node[128].veinsmobility totalCO2Emission 541.11692692212
scalar tls.node[144].appl generatedWSMs 0
scalar tls.node[144].appl receivedWSMs 0
scalar tls.node[144].appl generatedBSMs 0
scalar tls.node[144].appl receivedBSMs 0
scalar tls.node[144].appl generatedWSAs 0
scalar tls.node[144].appl receivedWSAs 0
scalar tls.node[144].nic.phy80211p busyTime 0
scalar tls.node[144].nic.mac1609_4 ReceivedUnicastPackets 0
scalar tls.node[144].nic.mac1609_4 ReceivedBroadcasts 0
scalar tls.node[144].nic.mac1609_4 SentPackets 0
scalar tls.node[144].nic.mac1609_4 SentAcknowledgements 0
scalar tls.node[144].nic.mac1609_4 RetriesExceeded 0
scalar tls.node[144].nic.mac1609_4 SNIRLostPackets 0
scalar tls.node[144].nic.mac1609_4 RXTXLostPackets 0
scalar tls.node[144].nic.mac1609_4 TotalLostPackets 0
scalar tls.node[144].nic.mac1609_4 DroppedPacketsInMac 0
scalar tls.node[144].nic.mac1609_4 TooLittleTime 0
scalar tls.node[144].nic.mac1609_4 TimesIntoBackoff 0
scalar tls.node[144].nic.mac1609_4 SlotsBackoff 0
scalar tls.node[144].nic.mac1609_4 NumInternalContention 0
scalar tls.node[144].nic.mac1609_4 totalBusyTime 0
scalar tls.node[144].nic.mac1609_4 retriesExceeded:count 0
attr source org_car2x_veins_modules_mac_sigRetriesExceeded
scalar tls.node[144].nic.mac1609_4 sentAcks:count 0
attr source org_car2x_veins_modules_mac_sigSentAck
scalar tls.node[144].nic.mac1609_4 sentPackets:count 0
attr source org_car2x_veins_modules_mac_sigSentPacket
scalar tls.node[144].nic.mac1609_4 collisions:count 0
attr source org_car2x_veins_modules_mac_sigCollision
scalar tls.node[144].nic.mac1609_4 channelBusy:timeavg 0
attr source org_car2x_veins_modules_mac_sigChannelBusy
scalar tls.node[144].veinsmobility startTime 645
scalar tls.node[144].veinsmobility totalTime 64
scalar tls.node[144].veinsmobility stopTime 710
scalar tls.node[144].veinsmobility minSpeed 4.8788538640328
scalar tls.node[144].veinsmobility maxSpeed 23.987821725416
scalar tls.node[144].veinsmobility totalDistance 740.32139770492
scalar tls.node[144].veinsmobility totalCO2Emission 233.74652220746
scalar tls.node[133].appl generatedWSMs 0
scalar tls.node[133].appl receivedWSMs 0
scalar tls.node[133].appl generatedBSMs 0
scalar tls.node[133].appl receivedBSMs 0
scalar tls.node[133].appl generatedWSAs 0
scalar tls.node[133].appl receivedWSAs 0
scalar tls.node[133].nic.phy80211p busyTime 0
scalar tls.node[133].nic.mac1609_4 ReceivedUnicastPackets 0
scalar tls.node[133].nic.mac1609_4 ReceivedBroadcasts 0
scalar tls.node[133].nic.mac1609_4 SentPackets 0
scalar tls.node[133].nic.mac1609_4 SentAcknowledgements 0
scalar tls.node[133].nic.mac1609_4 RetriesExceeded 0
scalar tls.node[133].nic.mac1609_4 SNIRLostPackets 0
scalar tls.node[133].nic.mac1609_4 RXTXLostPackets 0
scalar tls.node[133].nic.mac1609_4 TotalLostPackets 0
scalar tls.node[133].nic.mac1609_4 DroppedPacketsInMac 0
scalar tls.node[133].nic.mac1609_4 TooLittleTime 0
scalar tls.node[133].nic.mac1609_4 TimesIntoBackoff 0
scalar tls.node[133].nic.mac1609_4 SlotsBackoff 0
scalar tls.node[133].nic.mac1609_4 NumInternalContention 0
scalar tls.node[133].nic.mac1609_4 totalBusyTime 0
scalar tls.node[133].nic.mac1609_4 retriesExceeded:count 0
attr source org_car2x_veins_modules_mac_sigRetriesExceeded
scalar tls.node[133].nic.mac1609_4 sentAcks:count 0
attr source org_car2x_veins_modules_mac_sigSentAck
scalar tls.node[133].nic.mac1609_4 sentPackets:count 0
attr source org_car2x_veins_modules_mac_sigSentPacket
scalar tls.node[133].nic.mac1609_4 collisions:count 0
attr source org_car2x_veins_modules_mac_sigCollision
scalar tls.node[133].nic.mac1609_4 channelBusy:timeavg 0
attr source org_car2x_veins_modules_mac_sigChannelBusy
scalar tls.node[133].veinsmobility startTime 596
scalar tls.node[133].veinsmobility totalTime 119
scalar tls.node[133].veinsmobility stopTime 716
scalar tls.node[133].veinsmobility minSpeed 0.64822490832116
scalar tls.node[133].veinsmobility maxSpeed 27.309620032444
scalar tls.node[133].veinsmobility totalDistance 1666.1227731148
scalar tls.node[133].veinsmobility totalCO2Emission 532.96961417036
scalar tls.node[76].appl generatedWSMs 0
scalar tls.node[76].appl receivedWSMs 15
scalar tls.node[76].appl generatedBSMs 0
scalar tls.node[76].appl receivedBSMs 0
scalar tls.node[76].appl generatedWSAs 0
scalar tls.node[76].appl receivedWSAs 0
scalar tls.node[76].nic.phy80211p busyTime 9.1099476439791e-06
scalar tls.node[76].nic.mac1609_4 ReceivedUnicastPackets 0
scalar tls.node[76].nic.mac1609_4 ReceivedBroadcasts 15
scalar tls.node[76].nic.mac1609_4 SentPackets 0
scalar tls.node[76].nic.mac1609_4 SentAcknowledgements 0
scalar tls.node[76].nic.mac1609_4 RetriesExceeded 0
scalar tls.node[76].nic.mac1609_4 SNIRLostPackets 0
scalar tls.node[76].nic.mac1609_4 RXTXLostPackets 0
scalar tls.node[76].nic.mac1609_4 TotalLostPackets 0
scalar tls.node[76].nic.mac1609_4 DroppedPacketsInMac 0
scalar tls.node[76].nic.mac1609_4 TooLittleTime 0
scalar tls.node[76].nic.mac1609_4 TimesIntoBackoff 0
scalar tls.node[76].nic.mac1609_4 SlotsBackoff 0
scalar tls.node[76].nic.mac1609_4 NumInternalContention 0
scalar tls.node[76].nic.mac1609_4 totalBusyTime 0.00348
scalar tls.node[76].nic.mac1609_4 retriesExceeded:count 0
attr source org_car2x_veins_modules_mac_sigRetriesExceeded
scalar tls.node[76].nic.mac1609_4 sentAcks:count 0
attr source org_car2x_veins_modules_mac_sigSentAck
scalar tls.node[76].nic.mac1609_4 sentPackets:count 0
attr source org_car2x_veins_modules_mac_sigSentPacket
scalar tls.node[76].nic.mac1609_4 collisions:count 0
attr source org_car2x_veins_modules_mac_sigCollision
scalar tls.node[76].nic.mac1609_4 channelBusy:timeavg 9.1099476439791e-06
attr source org_car2x_veins_modules_mac_sigChannelBusy
scalar tls.node[76].veinsmobility startTime 337
scalar tls.node[76].veinsmobility totalTime 381
scalar tls.node[76].veinsmobility stopTime 719
scalar tls.node[76].veinsmobility minSpeed 0
scalar tls.node[76].veinsmobility maxSpeed 29.677123816907
scalar tls.node[76].veinsmobility totalDistance 2494.153117816
scalar tls.node[76].veinsmobility totalCO2Emission 976.73816158797
scalar tls.node[101].appl generatedWSMs 0
scalar tls.node[101].appl receivedWSMs 0
scalar tls.node[101].appl generatedBSMs 0
scalar tls.node[101].appl receivedBSMs 0
scalar tls.node[101].appl generatedWSAs 0
scalar tls.node[101].appl receivedWSAs 0
scalar tls.node[101].nic.phy80211p busyTime 1.2985074626866e-05
scalar tls.node[101].nic.mac1609_4 ReceivedUnicastPackets 0
scalar tls.node[101].nic.mac1609_4 ReceivedBroadcasts 0
scalar tls.node[101].nic.mac1609_4 SentPackets 0
scalar tls.node[101].nic.mac1609_4 SentAcknowledgements 0
scalar tls.node[101].nic.mac1609_4 RetriesExceeded 0
scalar tls.node[101].nic.mac1609_4 SNIRLostPackets 15
scalar tls.node[101].nic.mac1609_4 RXTXLostPackets 0
scalar tls.node[101].nic.mac1609_4 TotalLostPackets 15
scalar tls.node[101].nic.mac1609_4 DroppedPacketsInMac 0
scalar tls.node[101].nic.mac1609_4 TooLittleTime 0
scalar tls.node[101].nic.mac1609_4 TimesIntoBackoff 0
scalar tls.node[101].nic.mac1609_4 SlotsBackoff 0
scalar tls.node[101].nic.mac1609_4 NumInternalContention 0
scalar tls.node[101].nic.mac1609_4 totalBusyTime 0.00348
scalar tls.node[101].nic.mac1609_4 retriesExceeded:count 0
attr source org_car2x_veins_modules_mac_sigRetriesExceeded
scalar tls.node[101].nic.mac1609_4 sentAcks:count 0
attr source org_car2x_veins_modules_mac_sigSentAck
scalar tls.node[101].nic.mac1609_4 sentPackets:count 0
attr source org_car2x_veins_modules_mac_sigSentPacket
scalar tls.node[101].nic.mac1609_4 collisions:count 0
attr source org_car2x_veins_modules_mac_sigCollision
scalar tls.node[101].nic.mac1609_4 channelBusy:timeavg 1.2985074626866e-05
attr source org_car2x_veins_modules_mac_sigChannelBusy
scalar tls.node[101].veinsmobility startTime 453
scalar tls.node[101].veinsmobility totalTime 267
scalar tls.node[101].veinsmobility stopTime 721
scalar tls.node[101].veinsmobility minSpeed 0
scalar tls.node[101].veinsmobility maxSpeed 34.394779309892
scalar tls.node[101].veinsmobility totalDistance 4197.3901814336
scalar tls.node[101].veinsmobility totalCO2Emission 1299.4555847706
scalar tls.node[86].appl generatedWSMs 0
scalar tls.node[86].appl receivedWSMs 15
scalar tls.node[86].appl generatedBSMs 0
scalar tls.node[86].appl receivedBSMs 0
scalar tls.node[86].appl generatedWSAs 0
scalar tls.node[86].appl receivedWSAs 0
scalar tls.node[86].nic.phy80211p busyTime 9.9428571428571e-06
scalar tls.node[86].nic.mac1609_4 ReceivedUnicastPackets 0
scalar tls.node[86].nic.mac1609_4 ReceivedBroadcasts 15
scalar tls.node[86].nic.mac1609_4 SentPackets 0
scalar tls.node[86].nic.mac1609_4 SentAcknowledgements 0
scalar tls.node[86].nic.mac1609_4 RetriesExceeded 0
scalar tls.node[86].nic.mac1609_4 SNIRLostPackets 0
scalar tls.node[86].nic.mac1609_4 RXTXLostPackets 0
scalar tls.node[86].nic.mac1609_4 TotalLostPackets 0
scalar tls.node[86].nic.mac1609_4 DroppedPacketsInMac 0
scalar tls.node[86].nic.mac1609_4 TooLittleTime 0
scalar tls.node[86].nic.mac1609_4 TimesIntoBackoff 0
scalar tls.node[86].nic.mac1609_4 SlotsBackoff 0
scalar tls.node[86].nic.mac1609_4 NumInternalContention 0
scalar tls.node[86].nic.mac1609_4 totalBusyTime 0.00348
scalar tls.node[86].nic.mac1609_4 retriesExceeded:count 0
attr source org_car2x_veins_modules_mac_sigRetriesExceeded
scalar tls.node[86].nic.mac1609_4 sentAcks:count 0
attr source org_car2x_veins_modules_mac_sigSentAck
scalar tls.node[86].nic.mac1609_4 sentPackets:count 0
attr source org_car2x_veins_modules_mac_sigSentPacket
scalar tls.node[86].nic.mac1609_4 collisions:count 0
attr source org_car2x_veins_modules_mac_sigCollision
scalar tls.node[86].nic.mac1609_4 channelBusy:timeavg 9.9428571428571e-06
attr source org_car2x_veins_modules_mac_sigChannelBusy
scalar tls.node[86].veinsmobility startTime 377
scalar tls.node[86].veinsmobility totalTime 349
scalar tls.node[86].veinsmobility stopTime 727
scalar tls.node[86].veinsmobility minSpeed 0
scalar tls.node[86].veinsmobility maxSpeed 30.420280755564
scalar tls.node[86].veinsmobility totalDistance 2528.3085774174
scalar tls.node[86].veinsmobility totalCO2Emission 837.15944182304
scalar tls.node[98].appl generatedWSMs 0
scalar tls.node[98].appl receivedWSMs 7
scalar tls.node[98].appl generatedBSMs 0
scalar tls.node[98].appl receivedBSMs 0
scalar tls.node[98].appl generatedWSAs 0
scalar tls.node[98].appl receivedWSAs 0
scalar tls.node[98].nic.phy80211p busyTime 1.1153846153846e-05
scalar tls.node[98].nic.mac1609_4 ReceivedUnicastPackets 0
scalar tls.node[98].nic.mac1609_4 ReceivedBroadcasts 7
scalar tls.node[98].nic.mac1609_4 SentPackets 0
scalar tls.node[98].nic.mac1609_4 SentAcknowledgements 0
scalar tls.node[98].nic.mac1609_4 RetriesExceeded 0
scalar tls.node[98].nic.mac1609_4 SNIRLostPackets 8
scalar tls.node[98].nic.mac1609_4 RXTXLostPackets 0
scalar tls.node[98].nic.mac1609_4 TotalLostPackets 8
scalar tls.node[98].nic.mac1609_4 DroppedPacketsInMac 0
scalar tls.node[98].nic.mac1609_4 TooLittleTime 0
scalar tls.node[98].nic.mac1609_4 TimesIntoBackoff 0
scalar tls.node[98].nic.mac1609_4 SlotsBackoff 0
scalar tls.node[98].nic.mac1609_4 NumInternalContention 0
scalar tls.node[98].nic.mac1609_4 totalBusyTime 0.00348
scalar tls.node[98].nic.mac1609_4 retriesExceeded:count 0
attr source org_car2x_veins_modules_mac_sigRetriesExceeded
scalar tls.node[98].nic.mac1609_4 sentAcks:count 0
attr source org_car2x_veins_modules_mac_sigSentAck
scalar tls.node[98].nic.mac1609_4 sentPackets:count 0
attr source org_car2x_veins_modules_mac_sigSentPacket
scalar tls.node[98].nic.mac1609_4 collisions:count 0
attr source org_car2x_veins_modules_mac_sigCollision
scalar tls.node[98].nic.mac1609_4 channelBusy:timeavg 1.1153846153846e-05
attr source org_car2x_veins_modules_mac_sigChannelBusy
scalar tls.node[98].veinsmobility startTime 436
scalar tls.node[98].veinsmobility totalTime 311
scalar tls.node[98].veinsmobility stopTime 748
scalar tls.node[98].veinsmobility minSpeed 0
scalar tls.node[98].veinsmobility maxSpeed 28.136349481097
scalar tls.node[98].veinsmobility totalDistance 3678.6200065037
scalar tls.node[98].veinsmobility totalCO2Emission 998.34785009907
scalar tls.node[154].appl generatedWSMs 0
scalar tls.node[154].a