                                                                
version 2
run Default-0-20220415-03:08:10-50609
attr configname Default
attr datetime 20220415-03:08:10
attr experiment Default
attr inifile omnetpp.ini
attr iterationvars ""
attr iterationvarsf ""
attr measurement ""
attr network tls
attr processid 50609
attr repetition 0
attr replication #0
attr resultdir results
attr runnumber 0
attr seedset 0
param *.playgroundSizeX 5200m
param *.playgroundSizeY 2500m
param *.playgroundSizeZ 50m
param *.annotations.draw true
param *.manager.updateInterval 1s
param *.manager.host "\"localhost\""
param *.manager.port 9999
param *.manager.autoShutdown true
param *.manager.launchConfig "xmldoc(\"osm.launchd.xml\")"
param *.rsu[0].mobility.x 2200
param *.rsu[0].mobility.y 1150
param *.rsu[0].mobility.z 3
param *.rsu[*].applType "\"TraCIRSU\""
param *.rsu[*].appl.headerLength "80 bit"
param *.rsu[*].appl.sendBeacons false
param *.rsu[*].appl.dataOnSch false
param *.rsu[*].appl.beaconInterval 1s
param *.rsu[*].appl.beaconUserPriority 7
param *.rsu[*].appl.dataUserPriority 5
param *.rsu[*].nic.phy80211p.antennaOffsetZ "0 m"
param *.connectionManager.sendDirect true
param *.connectionManager.maxInterfDist 2600m
param *.connectionManager.drawMaxIntfDist false
param *.**.nic.mac1609_4.useServiceChannel false
param *.**.nic.mac1609_4.txPower 20mW
param *.**.nic.mac1609_4.bitrate 6Mbps
param *.**.nic.phy80211p.minPowerLevel -110dBm
param *.**.nic.phy80211p.useNoiseFloor true
param *.**.nic.phy80211p.noiseFloor -98dBm
param *.**.nic.phy80211p.decider "xmldoc(\"config.xml\")"
param *.**.nic.phy80211p.analogueModels "xmldoc(\"config.xml\")"
param *.**.nic.phy80211p.usePropagationDelay true
param *.**.nic.phy80211p.antenna "xmldoc(\"antenna.xml\", \"/root/Antenna[@id='monopole']\")"
param *.node[*].nic.phy80211p.antennaOffsetY "0 m"
param *.node[*].nic.phy80211p.antennaOffsetZ "1.895 m"
param *.node[*].applType "\"TraCIDemoEV\""
param *.node[*].appl.headerLength "80 bit"
param *.node[*].appl.sendBeacons false
param *.node[*].appl.dataOnSch false
param *.node[*].appl.beaconInterval 1s
param *.node[*].veinsmobility.x 0
param *.node[*].veinsmobility.y 0
param *.node[*].veinsmobility.z 0
param *.node[*].veinsmobility.setHostSpeed false
param *.node[*0].veinsmobility.accidentCount 0
param *.node[*0].veinsmobility.accidentStart 73s
param *.node[*0].veinsmobility.accidentDuration 50s

vector 0 tls.node[0].veinsmobility posx ETV
vector 1 tls.node[0].veinsmobility posy ETV
vector 2 tls.node[0].veinsmobility speed ETV
vector 3 tls.node[0].veinsmobility acceleration ETV
vector 4 tls.node[0].veinsmobility co2emission ETV
vector 5 tls.node[1].veinsmobility posx ETV
vector 6 tls.node[1].veinsmobility posy ETV
vector 7 tls.node[1].veinsmobility speed ETV
vector 8 tls.node[1].veinsmobility acceleration ETV
vector 9 tls.node[1].veinsmobility co2emission ETV
vector 10 tls.node[2].veinsmobility posx ETV
vector 11 tls.node[2].veinsmobility posy ETV
vector 12 tls.node[2].veinsmobility speed ETV
vector 13 tls.node[2].veinsmobility acceleration ETV
vector 14 tls.node[2].veinsmobility co2emission ETV
vector 15 tls.node[3].veinsmobility posx ETV
vector 16 tls.node[3].veinsmobility posy ETV
vector 17 tls.node[3].veinsmobility speed ETV
vector 18 tls.node[3].veinsmobility acceleration ETV
vector 19 tls.node[3].veinsmobility co2emission ETV
vector 20 tls.node[4].veinsmobility posx ETV
vector 21 tls.node[4].veinsmobility posy ETV
vector 22 tls.node[4].veinsmobility speed ETV
vector 23 tls.node[4].veinsmobility acceleration ETV
vector 24 tls.node[4].veinsmobility co2emission ETV
vector 25 tls.node[5].veinsmobility posx ETV
vector 26 tls.node[5].veinsmobility posy ETV
vector 27 tls.node[5].veinsmobility speed ETV
vector 28 tls.node[5].veinsmobility acceleration ETV
vector 29 tls.node[5].veinsmobility co2emission ETV
vector 30 tls.node[6].veinsmobility posx ETV
vector 31 tls.node[6].veinsmobility posy ETV
vector 32 tls.node[6].veinsmobility speed ETV
vector 33 tls.node[6].veinsmobility acceleration ETV
vector 34 tls.node[6].veinsmobility co2emission ETV
vector 35 tls.node[7].veinsmobility posx ETV
vector 36 tls.node[7].veinsmobility posy ETV
vector 37 tls.node[7].veinsmobility speed ETV
vector 38 tls.node[7].veinsmobility acceleration ETV
vector 39 tls.node[7].veinsmobility co2emission ETV
vector 40 tls.node[8].veinsmobility posx ETV
vector 41 tls.node[8].veinsmobility posy ETV
vector 42 tls.node[9].veinsmobility posx ETV
vector 43 tls.node[9].veinsmobility posy ETV
vector 44 tls.node[8].veinsmobility speed ETV
vector 45 tls.node[8].veinsmobility acceleration ETV
vector 46 tls.node[8].veinsmobility co2emission ETV
vector 47 tls.node[9].veinsmobility speed ETV
vector 48 tls.node[9].veinsmobility acceleration ETV
vector 49 tls.node[9].veinsmobility co2emission ETV
vector 50 tls.node[10].veinsmobility posx ETV
vector 51 tls.node[10].veinsmobility posy ETV
vector 52 tls.node[10].veinsmobility speed ETV
vector 53 tls.node[10].veinsmobility acceleration ETV
vector 54 tls.node[10].veinsmobility co2emission ETV
vector 55 tls.node[11].veinsmobility posx ETV
vector 56 tls.node[11].veinsmobility posy ETV
vector 57 tls.node[11].veinsmobility speed ETV
vector 58 tls.node[11].veinsmobility acceleration ETV
vector 59 tls.node[11].veinsmobility co2emission ETV
vector 60 tls.node[12].veinsmobility posx ETV
vector 61 tls.node[12].veinsmobility posy ETV
vector 62 tls.node[12].veinsmobility speed ETV
vector 63 tls.node[12].veinsmobility acceleration ETV
vector 64 tls.node[12].veinsmobility co2emission ETV
vector 65 tls.node[13].veinsmobility posx ETV
vector 66 tls.node[13].veinsmobility posy ETV
vector 67 tls.node[13].veinsmobility speed ETV
vector 68 tls.node[13].veinsmobility acceleration ETV
vector 69 tls.node[13].veinsmobility co2emission ETV
vector 70 tls.node[14].veinsmobility posx ETV
vector 71 tls.node[14].veinsmobility posy ETV
vector 72 tls.node[14].veinsmobility speed ETV
vector 73 tls.node[14].veinsmobility acceleration ETV
vector 74 tls.node[14].veinsmobility co2emission ETV
vector 75 tls.node[15].veinsmobility posx ETV
vector 76 tls.node[15].veinsmobility posy ETV
vector 77 tls.node[15].veinsmobility speed ETV
9	6109 1231 8 67 7 66 60 0.973 9.240025452735 180.10377641783 856.16313693382
8	7340 1493 8 67 7 66 60 -4.0739307222422 2.5767042224528 8.8860535879405 158.91385172207
7	8833 1450 7 67 6 66 61 1.4771120201563 14.52805132243 613.10389158965 7097.4739119547
6	10283 1471 6 67 5 66 62 787.38597486784 1060.7818698963 55850.351882322 50910545.178586
5	11754 1473 6 67 5 66 62 974.92352263829 1326.9146572914 70768.116020154 81750642.872465
vector 78 tls.node[15].veinsmobility acceleration ETV
vector 79 tls.node[15].veinsmobility co2emission ETV
vector 80 tls.node[16].veinsmobility posx ETV
vector 81 tls.node[16].veinsmobility posy ETV
vector 82 tls.node[16].veinsmobility speed ETV
vector 83 tls.node[16].veinsmobility acceleration ETV
vector 84 tls.node[16].veinsmobility co2emission ETV
vector 85 tls.node[17].veinsmobility posx ETV
vector 86 tls.node[17].veinsmobility posy ETV
vector 87 tls.node[17].veinsmobility speed ETV
vector 88 tls.node[17].veinsmobility acceleration ETV
vector 89 tls.node[17].veinsmobility co2emission ETV
vector 90 tls.node[18].veinsmobility posx ETV
vector 91 tls.node[18].veinsmobility posy ETV
vector 92 tls.node[18].veinsmobility speed ETV
vector 93 tls.node[18].veinsmobility acceleration ETV
vector 94 tls.node[18].veinsmobility co2emission ETV
vector 95 tls.node[19].veinsmobility posx ETV
vector 96 tls.node[19].veinsmobility posy ETV
vector 97 tls.node[19].veinsmobility speed ETV
vector 98 tls.node[19].veinsmobility acceleration ETV
vector 99 tls.node[19].veinsmobility co2emission ETV
vector 100 tls.node[20].veinsmobility posx ETV
vector 101 tls.node[20].veinsmobility posy ETV
vector 102 tls.node[20].veinsmobility speed ETV
vector 103 tls.node[20].veinsmobility acceleration ETV
vector 104 tls.node[20].veinsmobility co2emission ETV
vector 105 tls.node[21].veinsmobility posx ETV
vector 106 tls.node[21].veinsmobility posy ETV
vector 107 tls.node[21].veinsmobility speed ETV
vector 108 tls.node[21].veinsmobility acceleration ETV
vector 109 tls.node[21].veinsmobility co2emission ETV
vector 110 tls.node[22].veinsmobility posx ETV
vector 111 tls.node[22].veinsmobility posy ETV
vector 112 tls.node[22].veinsmobility speed ETV
vector 113 tls.node[22].veinsmobility acceleration ETV
vector 114 tls.node[22].veinsmobility co2emission ETV
vector 115 tls.node[23].veinsmobility posx ETV
vector 116 tls.node[23].veinsmobility posy ETV
vector 117 tls.node[23].veinsmobility speed ETV
vector 118 tls.node[23].veinsmobility acceleration ETV
vector 119 tls.node[23].veinsmobility co2emission ETV
vector 120 tls.node[24].veinsmobility posx ETV
vector 121 tls.node[24].veinsmobility posy ETV
vector 122 tls.node[24].veinsmobility speed ETV
vector 123 tls.node[24].veinsmobility acceleration ETV
vector 124 tls.node[24].veinsmobility co2emission ETV
34	15573 1619 28 101 27 100 74 0.64717736375444 15.60437327336 326.08928719779 2490.998970043
33	17192 1867 28 101 27 100 74 -4.5 2.5746821876615 -0.14966145965218 336.05858479414
32	19059 1870 27 101 26 100 75 2.5677312856671 25.708937409284 934.83675186038 14470.39265441
31	20929 1894 26 101 25 100 76 899.94426368543 1325.2329411911 90633.438681327 109499570.26813
30	22823 1895 26 101 25 100 76 997.97893916976 1457.3704153646 95783.163227786 123267450.066
14	24718 2097 11 103 10 102 93 -0.29330712135278 18.471835916699 517.89365162184 4744.9689490923
13	26815 2375 11 103 10 102 93 -4.5 2.5100635003299 15.363311698732 247.5181882614
12	29190 2343 10 103 9 102 94 1.3721544130938 28.602526169402 2001.9997246233 48267.803346495
11	31533 2371 9 103 8 102 95 575.17905168882 1235.0528554073 94076.239676752 98969071.320984
10	33904 2369 9 103 8 102 95 961.57975807916 2132.2053335218 127581.65506803 186548975.33202
vector 125 tls.node[25].veinsmobility posx ETV
vector 126 tls.node[25].veinsmobility posy ETV
vector 127 tls.node[25].veinsmobility speed ETV
vector 128 tls.node[25].veinsmobility acceleration ETV
vector 129 tls.node[25].veinsmobility co2emission ETV
59	36524 1149 54 107 53 106 54 0.973 19.61768827402 228.59889852694 1864.782639224
58	37673 1346 54 107 53 106 54 -4.5 2.5877634015167 -10.537260073324 286.69581616925
57	39019 1383 53 107 52 106 55 2.4687527578825 25.99383422648 635.58144016832 9546.9720903091
56	40402 1401 52 107 51 106 56 1190.9377289998 1327.5255676221 70541.420786865 88978016.907352
55	41803 1409 52 107 51 106 56 917.22790252306 1460.5812045593 65861.599285758 79066971.987065
vector 130 tls.node[26].veinsmobility posx ETV
vector 131 tls.node[26].veinsmobility posy ETV
vector 132 tls.node[26].veinsmobility speed ETV
vector 133 tls.node[26].veinsmobility acceleration ETV
vector 134 tls.node[26].veinsmobility co2emission ETV
vector 135 tls.node[27].veinsmobility posx ETV
vector 136 tls.node[27].veinsmobility posy ETV
vector 137 tls.node[27].veinsmobility speed ETV
vector 138 tls.node[27].veinsmobility acceleration ETV
vector 139 tls.node[27].veinsmobility co2emission ETV
vector 140 tls.node[28].veinsmobility posx ETV
vector 141 tls.node[28].veinsmobility posy ETV
vector 142 tls.node[28].veinsmobility speed ETV
vector 143 tls.node[28].veinsmobility acceleration ETV
vector 144 tls.node[28].veinsmobility co2emission ETV
4	43965 2437 4 118 3 117 115 0.973 16.207638861054 379.72538290115 2242.6279662124
3	46402 2867 4 118 3 117 115 -4.5 2.5662959037116 6.0060203578496 307.76954717576
2	49269 2793 3 118 2 117 116 1.545720749555 24.084191529483 1378.618285184 19005.078911553
1	52062 2811 2 118 1 117 117 1146.5934894472 1667.2769322171 166765.01570718 241156454.4505
0	54873 2816 2 118 1 117 117 2150.4696247698 2747.4583913828 280699.74626919 677803479.00003
vector 145 tls.node[29].veinsmobility posx ETV
vector 146 tls.node[29].veinsmobility posy ETV
vector 147 tls.node[29].veinsmobility speed ETV
vector 148 tls.node[29].veinsmobility acceleration ETV
vector 149 tls.node[29].veinsmobility co2emission ETV
vector 150 tls.node[30].veinsmobility posx ETV
vector 151 tls.node[30].veinsmobility posy ETV
vector 152 tls.node[30].veinsmobility speed ETV
vector 153 tls.node[30].veinsmobility acceleration ETV
vector 154 tls.node[30].veinsmobility co2emission ETV
vector 155 tls.node[31].veinsmobility posx ETV
vector 156 tls.node[31].veinsmobility posy ETV
vector 157 tls.node[31].veinsmobility speed ETV
vector 158 tls.node[31].veinsmobility acceleration ETV
vector 159 tls.node[31].veinsmobility co2emission ETV
vector 160 tls.node[32].veinsmobility posx ETV
vector 161 tls.node[32].veinsmobility posy ETV
vector 162 tls.node[32].veinsmobility speed ETV
vector 163 tls.node[32].veinsmobility acceleration ETV
vector 164 tls.node[32].veinsmobility co2emission ETV
vector 165 tls.node[33].veinsmobility posx ETV
vector 166 tls.node[33].veinsmobility posy ETV
vector 167 tls.node[33].veinsmobility speed ETV
vector 168 tls.node[33].veinsmobility acceleration ETV
vector 169 tls.node[33].veinsmobility co2emission ETV
vector 170 tls.node[34].veinsmobility posx ETV
vector 171 tls.node[34].veinsmobility posy ETV
vector 172 tls.node[34].veinsmobility speed ETV
vector 173 tls.node[34].veinsmobility acceleration ETV
vector 174 tls.node[34].veinsmobility co2emission ETV
99	59195 1515 84 1361 83 146 64 0.973 16.90697748192 330.68042369548 2754.085971515
98	60710 1651 84 1361 83 146 64 -4.5 2.5123967804946 9.2912642629268 386.58456360593
97	62361 1741 83 1361 82 146 65 1.591815538099 23.747578898382 819.36390277218 13066.726873503
96	64102 1762 82 1361 81 146 66 876.84055218134 1205.3400367844 66545.516592238 67992280.401227
95	65864 1761 82 1361 81 146 66 1400.6567970325 1767.0885469283 108916.95385935 181007913.50677
vector 175 tls.node[35].veinsmobility posx ETV
vector 176 tls.node[35].veinsmobility posy ETV
vector 177 tls.node[35].veinsmobility speed ETV
vector 178 tls.node[35].veinsmobility acceleration ETV
vector 179 tls.node[35].veinsmobility co2emission ETV
vector 180 tls.node[36].veinsmobility posx ETV
vector 181 tls.node[36].veinsmobility posy ETV
vector 182 tls.node[36].veinsmobility speed ETV
vector 183 tls.node[36].veinsmobility acceleration ETV
vector 184 tls.node[36].veinsmobility co2emission ETV
74	68127 2225 64 1374 63 159 97 0.973 14.713973385341 317.24406418194 2095.5833500974
73	70352 2659 64 1374 63 159 97 -4.5 2.529327815515 19.214287970255 195.41407128744
72	73011 2603 63 1374 62 159 98 0.15225448624271 21.976201345647 1037.7685409091 14465.897575209
71	75614 2612 62 1374 61 159 99 1224.7012715471 1380.8076371538 126997.45982961 163284636.58155
70	78226 2612 62 1374 61 159 99 1603.9949660902 2489.09 215745.191834 475293836.05097
vector 185 tls.node[37].veinsmobility posx ETV
vector 186 tls.node[37].veinsmobility posy ETV
vector 187 tls.node[37].veinsmobility speed ETV
vector 188 tls.node[37].veinsmobility acceleration ETV
vector 189 tls.node[37].veinsmobility co2emission ETV
vector 190 tls.node[38].veinsmobility posx ETV
vector 191 tls.node[38].veinsmobility posy ETV
vector 192 tls.node[38].veinsmobility speed ETV
vector 193 tls.node[38].veinsmobility acceleration ETV
vector 194 tls.node[38].veinsmobility co2emission ETV
vector 195 tls.node[39].veinsmobility posx ETV
vector 196 tls.node[39].veinsmobility posy ETV
vector 197 tls.node[39].veinsmobility speed ETV
134	81482 1708 111 1390 110 175 66 0.973 16.289787242019 286.75864627665 2240.8125209887
133	83190 1904 111 1390 110 175 66 -4.5 2.552102433471 12.467885388952 268.53270116001
132	85094 1916 110 1390 109 175 67 2.2793558065081 25.645303168031 831.26214091715 11902.572710378
131	87010 1951 109 1390 108 175 68 871.20437836458 1245.1694745472 70391.300167619 74076093.284863
130	88961 1942 109 1390 108 175 68 1061.1668782005 1343.9109821748 82794.00382204 101356364.93161
vector 198 tls.node[39].veinsmobility acceleration ETV
vector 199 tls.node[39].veinsmobility co2emission ETV
vector 200 tls.node[40].veinsmobility posx ETV
vector 201 tls.node[40].veinsmobility posy ETV
vector 202 tls.node[40].veinsmobility speed ETV
vector 203 tls.node[40].veinsmobility acceleration ETV
vector 204 tls.node[40].veinsmobility co2emission ETV
109	91263 2244 91 1394 90 179 90 0.973 17.386128933606 448.70200130444 4118.0180997073
108	93507 2549 91 1394 90 179 90 -4.5 2.5300459742779 14.43417771878 406.55292739422
107	96056 2561 90 1394 89 179 91 0 28.037831052633 1169.9381952121 19423.234130881
106	98617 2598 89 1394 88 179 92 423.88984584628 1237.6795723726 78226.631184554 71850458.431286
105	101215 2602 89 1394 88 179 92 939.4589486454 1342.7448800471 99626.738482198 108818985.83637
159	103817 1449 1341 1394 126 179 54 0.973 21.80502595547 388.43514552381 4296.7203822283
158	105266 1547 1341 1394 126 179 54 -4.5 2.5970629891846 28.89620291145 308.1525352004
157	106813 1587 1340 1394 125 179 55 0.1932259628766 31.141848574732 860.46615525079 17206.697702153
156	108400 1619 1180 1394 124 179 56 737.75687929267 1245.1892091168 58192.016915188 62507947.666395
155	110019 1619 1180 1394 124 179 56 1166.1630746434 1473.5409469757 78682.566503293 110853469.26028
vector 205 tls.node[41].veinsmobility posx ETV
vector 206 tls.node[41].veinsmobility posy ETV
vector 207 tls.node[41].veinsmobility speed ETV
vector 208 tls.node[41].veinsmobility acceleration ETV
vector 209 tls.node[41].veinsmobility co2emission ETV
139	111889 1816 114 1398 113 183 71 0.50188722553426 12.249017780586 255.68185600492 1536.2958578913
138	113705 2125 114 1398 113 183 71 -4.4476817433024 2.5696673156344 19.457203311743 129.64342037435
137	115830 2071 113 1398 112 183 72 1.7856316009536 21.685391115458 947.650062615 13569.554120216
136	117901 2099 112 1398 111 183 73 955.76561854109 1694.8448609807 102480.00053694 147439682.169
135	120000 2096 112 1398 111 183 73 1385.7173503777 1553.369866078 109374.30703443 164056411.56294
vector 210 tls.node[42].veinsmobility posx ETV
vector 211 tls.node[42].veinsmobility posy ETV
vector 212 tls.node[42].veinsmobility speed ETV
vector 213 tls.node[43].veinsmobility posx ETV
vector 214 tls.node[43].veinsmobility posy ETV
vector 215 tls.node[42].veinsmobility acceleration ETV
vector 216 tls.node[42].veinsmobility co2emission ETV
vector 217 tls.node[43].veinsmobility speed ETV
vector 218 tls.node[43].veinsmobility acceleration ETV
vector 219 tls.node[43].veinsmobility co2emission ETV
29	122598 3699 24 1405 23 190 168 0.973 22.173921077768 741.44937377918 7262.105798869
28	126297 4108 24 1405 23 190 168 -4.5 2.5998513045954 7.6182518169308 596.66776670724
27	130405 4096 23 1405 22 190 169 0 31.903089456382 2057.6222985626 41657.004054534
26	134501 4481 22 1405 21 190 170 923.21019114762 1356.0903925996 204103.56877944 247059746.53961
25	138982 4472 22 1405 21 190 170 1262.7967654487 2125.8612640863 300246.0973519 546067650.46341
vector 220 tls.node[44].veinsmobility posx ETV
vector 221 tls.node[44].veinsmobility posy ETV
vector 222 tls.node[44].veinsmobility speed ETV
vector 223 tls.node[44].veinsmobility acceleration ETV
vector 224 tls.node[44].veinsmobility co2emission ETV
vector 225 tls.node[45].veinsmobility posx ETV
vector 226 tls.node[45].veinsmobility posy ETV
vector 227 tls.node[45].veinsmobility speed ETV
vector 228 tls.node[45].veinsmobility acceleration ETV
vector 229 tls.node[45].veinsmobility co2emission ETV
119	143956 2580 97 1411 96 196 101 0.973 12.705734043034 339.74342521832 1944.2266267461
118	146536 3007 97 1411 96 196 101 -4.2726535439397 2.5925925980788 8.4803277872987 228.85001923942
117	149543 2912 96 1411 95 196 102 0.08883637086775 22.248034109193 1352.5592369546 20333.791815112
116	152455 2931 95 1411 94 196 103 1013.6843377949 1677.4513858755 128458.1924466 163460728.00251
115	155386 2935 95 1411 94 196 103 2150.4689534507 2899.6129761905 248934.56270515 607503185.70463
vector 230 tls.node[46].veinsmobility posx ETV
vector 231 tls.node[46].veinsmobility posy ETV
vector 232 tls.node[46].veinsmobility speed ETV
vector 233 tls.node[46].veinsmobility acceleration ETV
vector 234 tls.node[46].veinsmobility co2emission ETV
vector 235 tls.node[47].veinsmobility posx ETV
vector 236 tls.node[47].veinsmobility posy ETV
vector 237 tls.node[47].veinsmobility speed ETV
vector 238 tls.node[47].veinsmobility acceleration ETV
vector 239 tls.node[47].veinsmobility co2emission ETV
vector 240 tls.node[48].veinsmobility posx ETV
vector 241 tls.node[48].veinsmobility posy ETV
vector 242 tls.node[48].veinsmobility speed ETV
vector 243 tls.node[48].veinsmobility acceleration ETV
vector 244 tls.node[48].veinsmobility co2emission ETV
vector 245 tls.node[49].veinsmobility posx ETV
vector 246 tls.node[49].veinsmobility posy ETV
vector 247 tls.node[49].veinsmobility speed ETV
24	159216 4510 18 1430 17 215 199 0.85656268346951 15.710786204495 640.51850121949 3903.7169589565
23	163726 5307 18 1430 17 215 199 -4.5 2.5555923108011 9.8917181013621 484.255859391
22	169033 5141 17 1430 16 215 200 0 24.460656419979 2246.4975639587 34866.780353451
21	174174 5331 16 1430 15 215 201 930.3852553542 1245.091278963 233057.89565239 272034482.2681
20	179505 5337 16 1430 15 215 201 1035.4776619148 2839.6096024689 400300.55272058 871350168.97609
vector 248 tls.node[49].veinsmobility acceleration ETV
vector 249 tls.node[49].veinsmobility co2emission ETV
84	184951 3686 71 1431 70 216 147 -0.48544438758351 20.319764761134 742.988122917 6588.4997091513
83	188637 4108 71 1431 70 216 147 -4.5 2.5585252339253 25.413484598418 385.84943885724
82	192745 4015 70 1431 69 216 148 2.2375093692681 28.912729694556 2860.3320785173 65301.275105885
81	196760 4041 69 1431 68 216 149 1212.9436368229 1966.4913373685 217948.60793897 328298415.33667
80	200801 4038 69 1431 68 216 149 989.45305396096 2150.1402968413 242024.95409279 420854720.95694
19	204839 4710 14 1432 13 217 205 0.42733237560956 20.449133793137 714.72067532682 5186.082883311
18	209549 5330 14 1432 13 217 205 -4.5 2.5850412519183 5.7381996905538 519.49491474833
17	214879 5218 13 1432 12 217 206 0 28.085064355381 2475.848660238 42016.677835224
16	220097 5486 12 1432 11 217 207 647.21876054358 1667.27853165 263758.87584346 351599858.91112
15	225583 5489 12 1432 11 217 207 1327.386944368 2741.2929186263 423271.03523405 906789966.59966
vector 250 tls.node[50].veinsmobility posx ETV
vector 251 tls.node[50].veinsmobility posy ETV
vector 252 tls.node[50].veinsmobility speed ETV
vector 253 tls.node[50].veinsmobility acceleration ETV
vector 254 tls.node[50].veinsmobility co2emission ETV
vector 255 tls.node[51].veinsmobility posx ETV
vector 256 tls.node[51].veinsmobility posy ETV
vector 257 tls.node[51].veinsmobility speed ETV
vector 258 tls.node[51].veinsmobility acceleration ETV
vector 259 tls.node[51].veinsmobility co2emission ETV
124	231574 3404 101 1444 100 229 130 0.56400007930139 13.852670549734 505.80157945489 3146.181952519
123	234978 3818 101 1444 100 229 130 -4.5 2.596795658418 19.178085945449 419.14522967436
122	238796 3763 100 1444 99 229 131 0.21767590760102 20.766192884925 1662.6292434258 25634.007421985
121	242559 3774 99 1444 98 229 132 719.51255414013 1241.8187212515 143319.42989297 160569758.87536
120	246333 3776 99 1444 98 229 132 1159.5348785524 2318.2648315031 225342.72368163 401690261.95536
89	250109 3707 74 1445 73 230 158 0.48889244995798 19.324853231597 691.60236417929 5917.576340026
88	253816 4011 74 1445 73 230 158 -4.5 2.5895389665384 27.217940312973 562.43091451517
87	257827 4034 73 1445 72 230 159 0 28.711906701769 1854.7351271175 33554.428939654
86	261861 4354 72 1445 71 230 160 848.51030335165 1245.1916299735 185340.13696438 216619519.09828
85	266215 4347 72 1445 71 230 160 939.42519877702 2317.4012431716 256089.78641422 455774952.82067
vector 260 tls.node[52].veinsmobility posx ETV
vector 261 tls.node[52].veinsmobility posy ETV
vector 262 tls.node[52].veinsmobility speed ETV
154	270704 2825 1025 1447 123 232 110 0.973 18.206914914623 484.61631243928 3630.7570042229
153	273529 3191 1025 1447 123 232 110 -4.5 2.5767857002327 11.899393880166 489.26466028691
152	276720 3208 870 1447 122 232 111 2.0551424052101 28.280087971875 1358.335289903 20225.909778457
151	279928 3233 715 1447 121 232 112 472.80584221906 1143.0477465998 95837.370546837 86443460.34117
150	283161 3230 715 1447 121 232 112 941.08533517604 1381.4083657218 127775.2848945 146862283.66333
vector 263 tls.node[52].veinsmobility acceleration ETV
vector 264 tls.node[52].veinsmobility co2emission ETV
vector 265 tls.node[53].veinsmobility posx ETV
vector 266 tls.node[53].veinsmobility posy ETV
vector 267 tls.node[53].veinsmobility speed ETV
vector 268 tls.node[53].veinsmobility acceleration ETV
vector 269 tls.node[53].veinsmobility co2emission ETV
vector 270 tls.node[54].veinsmobility posx ETV
vector 271 tls.node[54].veinsmobility posy ETV
vector 272 tls.node[54].veinsmobility speed ETV
79	286893 4154 68 1456 67 241 175 0.973 16.902754855734 599.72276949784 4323.3375394021
78	291047 4895 68 1456 67 241 175 -4.5 2.5826813858701 0.93210216699981 428.10911630298
77	295942 4785 67 1456 66 241 176 2.5810525485314 28.383432173383 1983.8512981357 28573.006889736
76	300727 4808 66 1456 65 241 177 942.90522537216 1539.6523584117 229250.0066006 300945374.89032
75	305535 4812 66 1456 65 241 177 1302.7965705319 2717.7361643836 377709.18920059 844245549.06092
vector 273 tls.node[54].veinsmobility acceleration ETV
vector 274 tls.node[54].veinsmobility co2emission ETV
129	310456 3564 107 1457 106 242 137 -0.021395096523923 19.041283442167 490.06160491697 3552.6850216596
128	314020 4093 107 1457 106 242 137 -4.5 2.5392899554223 -4.3636473080024 277.69124400308
127	318113 3966 106 1457 105 242 138 5.3486583992165 26.109443753447 2124.4261304148 37835.251682134
126	322079 4002 105 1457 104 242 139 1228.7144187688 1745.7163732813 198689.35390426 289076757.63831
125	326081 4000 105 1457 104 242 139 990.55644622449 2132.4888512932 234913.93182125 417639363.70249
54	330081 4749 48 1458 47 243 197 0.0088250342614806 22.974654469049 663.05477399516 4531.6756324304
53	334830 5532 48 1458 47 243 197 -4.5 2.5616023618961 -15.202000951212 454.98249126266
52	340362 5345 47 1458 46 243 198 0.33662473580789 31.173540926289 2817.62428247 49707.247572142
51	345707 5361 46 1458 45 243 199 1197.9712851808 1896.7329952933 279875.33777716 400330004.75658
50	351068 5372 46 1458 45 243 199 872.01026174212 2481.6618968709 356258.07266985 687566800.50116
39	356440 4819 31 1461 30 246 217 0.79463354464662 12.592797525814 604.67238461744 3130.7100183652
38	361259 5323 31 1461 30 246 217 -4.5 2.5565654443344 8.9945534452945 419.63140913741
37	366582 5191 30 1461 29 246 218 0 21.214020330186 2092.9988071309 31775.131304114
36	371773 5831 29 1461 28 246 219 1058.7314881395 1245.1125689377 263375.85859834 317288966.57818
35	377604 5874 29 1461 28 246 219 1060.2769516644 2318.4951277111 378835.17834411 700700858.92644
46	383478 5011 37 1464 36 249 214 -0.57853085740978 17.648962564862 752.86630924233 5299.2136167636
45	388489 5903 37 1464 36 249 214 -4.5 2.5931906580227 6.690919675485 604.64182331658
44	394392 5777 36 1464 35 249 215 1.7938292987179 29.276021552228 2599.7130996193 38684.05224194
41	400169 5800 35 1464 34 249 216 833.36354591187 1230.859331266 226473.35932291 241691990.54973
40	405969 5807 35 1464 34 249 216 1094.3578504673 3312.2138262905 483294.80120344 1192768834.7305
vector 275 tls.node[55].veinsmobility posx ETV
vector 276 tls.node[55].veinsmobility posy ETV
vector 277 tls.node[55].veinsmobility speed ETV
vector 278 tls.node[55].veinsmobility acceleration ETV
vector 279 tls.node[55].veinsmobility co2emission ETV
vector 280 tls.node[56].veinsmobility posx ETV
vector 281 tls.node[56].veinsmobility posy ETV
vector 282 tls.node[56].veinsmobility speed ETV
216	412169 1819 1402 1470 187 255 69 0.41146652269639 17.258761744718 392.33911539874 3606.1501031516
215	413988 1950 1402 1470 187 255 69 -4.5 2.5455425214721 9.0841676207421 380.76005942509
212	415938 2025 1401 1470 186 255 70 1.5555659074103 27.84154242435 1032.4772807248 18621.602416664
211	417963 2042 1400 1470 185 255 71 731.36795328203 1234.8321959391 72909.956721758 77271253.799068
210	420005 2044 1400 1470 185 255 71 1079.4111649733 1476.8746208393 94949.393398979 128359445.88909
vector 283 tls.node[56].veinsmobility acceleration ETV
vector 284 tls.node[56].veinsmobility co2emission ETV
vector 285 tls.node[57].veinsmobility posx ETV
vector 286 tls.node[57].veinsmobility posy ETV
vector 287 tls.node[57].veinsmobility speed ETV
vector 288 tls.node[57].veinsmobility acceleration ETV
vector 289 tls.node[57].veinsmobility co2emission ETV
vector 290 tls.node[58].veinsmobility posx ETV
vector 291 tls.node[58].veinsmobility posy ETV
vector 292 tls.node[58].veinsmobility speed ETV
vector 293 tls.node[58].veinsmobility acceleration ETV
vector 294 tls.node[58].veinsmobility co2emission ETV
114	422660 4625 94 1484 93 269 177 0.21864403075238 17.325498114794 673.82868453358 4561.4448473028
113	427285 5160 94 1484 93 269 177 -4.5 2.5888129123719 22.099923310511 433.91600882013
112	432445 5012 93 1484 92 269 178 0 24.549386732269 2618.5964064686 50361.529866448
111	437457 5127 92 1484 91 269 179 922.74231274872 1962.0559751676 262575.58050473 401129736.56518
110	442584 5125 92 1484 91 269 179 1078.0115772387 2149.9987273929 323696.51947156 604803630.20412
164	447709 3638 1348 1484 133 269 137 -1.7942899411033 22.528487496296 767.43433757503 7744.1948256911
163	451347 3972 1348 1484 133 269 137 -4.5 2.4159781584516 -21.904144609698 541.88545170315
162	455319 3987 1347 1484 132 269 138 4.3933838498645 33.037928034703 3015.2395570418 78540.17882444
161	459306 4019 1346 1484 131 269 139 969.73697973601 1961.9858617163 189858.84702399 271689559.27094
160	463325 4018 1346 1484 131 269 139 1017.8243383643 2132.3734027783 212240.6555941 348612591.74111
vector 295 tls.node[59].veinsmobility posx ETV
vector 296 tls.node[59].veinsmobility posy ETV
vector 297 tls.node[59].veinsmobility speed ETV
184	467485 3034 1371 1486 156 271 116 -1.4703647694834 22.718818137071 703.61978515548 7845.1753325836
183	470519 3348 1371 1486 156 271 116 -4.5 2.5825377349276 12.637913909055 526.81200420324
182	473867 3387 1370 1486 155 271 117 2.1898296759231 31.339075826599 2184.4482688497 50803.797773674
181	477254 3411 1369 1486 154 271 118 1060.1919779829 1245.0793218127 139099.04476915 164461257.98098
180	480665 3414 1369 1486 154 271 118 1060.9595300415 2125.2728088287 179533.06367714 287298676.67487
vector 298 tls.node[59].veinsmobility acceleration ETV
vector 299 tls.node[59].veinsmobility co2emission ETV
vector 300 tls.node[60].veinsmobility posx ETV
vector 301 tls.node[60].veinsmobility posy ETV
vector 302 tls.node[60].veinsmobility speed ETV
vector 303 tls.node[60].veinsmobility acceleration ETV
vector 304 tls.node[60].veinsmobility co2emission ETV
vector 305 tls.node[61].veinsmobility posx ETV
vector 306 tls.node[61].veinsmobility posy ETV
vector 307 tls.node[62].veinsmobility posx ETV
vector 308 tls.node[62].veinsmobility posy ETV
vector 309 tls.node[61].veinsmobility speed ETV
vector 310 tls.node[61].veinsmobility acceleration ETV
vector 311 tls.node[61].veinsmobility co2emission ETV
vector 312 tls.node[62].veinsmobility speed ETV
vector 313 tls.node[63].veinsmobility posx ETV
vector 314 tls.node[63].veinsmobility posy ETV
vector 315 tls.node[62].veinsmobility acceleration ETV
vector 316 tls.node[62].veinsmobility co2emission ETV
vector 317 tls.node[63].veinsmobility speed ETV
vector 318 tls.node[63].veinsmobility acceleration ETV
vector 319 tls.node[63].veinsmobility co2emission ETV
vector 320 tls.node[64].veinsmobility posx ETV
vector 321 tls.node[64].veinsmobility posy ETV
vector 322 tls.node[64].veinsmobility speed ETV
vector 323 tls.node[64].veinsmobility acceleration ETV
vector 324 tls.node[64].veinsmobility co2emission ETV
vector 325 tls.node[65].veinsmobility posx ETV
vector 326 tls.node[65].veinsmobility posy ETV
vector 327 tls.node[65].veinsmobility speed ETV
vector 328 tls.node[65].veinsmobility acceleration ETV
vector 329 tls.node[65].veinsmobility co2emission ETV
vector 330 tls.node[66].veinsmobility posx ETV
vector 331 tls.node[66].veinsmobility posy ETV
234	485788 2356 1414 3289 199 290 92 0.973 9.7281032759541 279.2773740605 1297.7589239999
233	488144 2739 1414 3289 199 290 92 -4.5 2.5107028312748 9.2993634802812 291.97400568351
232	490883 2690 1413 3289 198 290 93 2.5354192544283 14.073119448166 833.27353223709 8241.7231437106
231	493573 2718 1412 3289 197 290 94 1058.3099639234 1297.7621933158 109138.45276124 127185278.16555
230	496291 2701 1412 3289 197 290 94 919.85240490706 1285.3740875306 105676.77270364 119591773.36558
vector 332 tls.node[66].veinsmobility speed ETV
vector 333 tls.node[66].veinsmobility acceleration ETV
vector 334 tls.node[66].veinsmobility co2emission ETV
vector 335 tls.node[67].veinsmobility posx ETV
vector 336 tls.node[67].veinsmobility posy ETV
vector 337 tls.node[67].veinsmobility speed ETV
vector 338 tls.node[67].veinsmobility acceleration ETV
vector 339 tls.node[67].veinsmobility co2emission ETV
vector 340 tls.node[68].veinsmobility posx ETV
vector 341 tls.node[68].veinsmobility posy ETV
vector 342 tls.node[68].veinsmobility speed ETV
vector 343 tls.node[68].veinsmobility acceleration ETV
vector 344 tls.node[68].veinsmobility co2emission ETV
vector 345 tls.node[69].veinsmobility posx ETV
vector 346 tls.node[69].veinsmobility posy ETV
vector 347 tls.node[69].veinsmobility speed ETV
vector 348 tls.node[69].veinsmobility acceleration ETV
vector 349 tls.node[69].veinsmobility co2emission ETV
vector 350 tls.node[70].veinsmobility posx ETV
vector 351 tls.node[70].veinsmobility posy ETV
vector 352 tls.node[70].veinsmobility speed ETV
vector 353 tls.node[70].veinsmobility acceleration ETV
vector 354 tls.node[70].veinsmobility co2emission ETV
vector 355 tls.node[71].veinsmobility posx ETV
vector 356 tls.node[71].veinsmobility posy ETV
vector 357 tls.node[71].veinsmobility speed ETV
vector 358 tls.node[71].veinsmobility acceleration ETV
vector 359 tls.node[71].veinsmobility co2emission ETV
vector 360 tls.node[72].veinsmobility posx ETV
vector 361 tls.node[72].veinsmobility posy ETV
vector 362 tls.node[72].veinsmobility speed ETV
vector 363 tls.node[72].veinsmobility acceleration ETV
vector 364 tls.node[72].veinsmobility co2emission ETV
vector 365 tls.node[73].veinsmobility posx ETV
vector 366 tls.node[73].veinsmobility posy ETV
vector 367 tls.node[73].veinsmobility speed ETV
vector 368 tls.node[73].veinsmobility acceleration ETV
vector 369 tls.node[73].veinsmobility co2emission ETV
194	500906 4018 1381 3325 166 326 161 0.23112719382177 15.880421568509 507.79426620769 3335.7484738206
193	504924 4346 1381 3325 166 326 161 -4.5 2.5943277441431 -15.597412779553 404.17364533863
192	509270 4256 1380 3325 165 326 162 0 24.456343842028 1985.3287580682 40332.954419427
191	513526 4708 1379 3325 164 326 163 829.76276800851 1623.1045515743 171350.20577079 187834420.752
190	518234 4718 1379 3325 164 326 163 30.114878825046 1187.3944189524 144976.4840251 143966162.43056
174	522952 4515 1361 3328 146 329 184 0.973 11.568417592769 448.43020785043 2030.8998626043
173	527467 4909 1361 3328 146 329 184 -4.5 2.5927922526607 6.934957627238 380.21162929093
172	532376 4820 1360 3328 145 329 185 0 16.376726526577 1409.8683777419 18685.539028237
171	537196 5386 1359 3328 144 329 186 742.80413502854 1701.8618834675 215480.73561274 262739196.89812
170	542582 5375 1359 3328 144 329 186 2136.2298839907 2255.5908214524 402641.08490857 871816319.62228
144	547957 5088 117 3329 116 330 215 0.05040486775083 15.555878142493 630.4850025855 4067.1974253237
143	553045 5467 117 3329 116 330 215 -4.5 2.5642049093731 -2.7290546069383 541.44199566197
142	558512 5370 116 3329 115 330 216 0 26.220820321326 1853.1666143261 29472.98365338
141	563882 6213 115 3329 114 330 217 584.79817567568 1241.6084506151 226122.82154233 245816712.35598
140	570095 6263 115 3329 114 330 217 1455.3151857601 2399.8175 450732.98606539 951575247.52755
274	576358 2312 1457 3330 242 331 90 0.973 15.913635036321 365.50680014255 2710.8943011995
273	578670 2648 1457 3330 242 331 90 -4.5 2.474105329439 0.056711501145061 359.41817204448
272	581318 2628 1456 3330 241 331 91 4.0223132963357 26.376121185378 1061.6569232995 14738.300005817
271	583946 2655 1455 3330 240 331 92 1009.5344642014 1297.571388039 107790.61408341 127019409.56736
270	586601 2667 1455 3330 240 331 92 911.68261688553 1457.2583840756 114082.81229354 144426416.5856
vector 370 tls.node[74].veinsmobility posx ETV
vector 371 tls.node[74].veinsmobility posy ETV
vector 372 tls.node[75].veinsmobility posx ETV
vector 373 tls.node[75].veinsmobility posy ETV
vector 374 tls.node[74].veinsmobility speed ETV
vector 375 tls.node[75].veinsmobility speed ETV
vector 376 tls.node[74].veinsmobility acceleration ETV
vector 377 tls.node[74].veinsmobility co2emission ETV
vector 378 tls.node[75].veinsmobility acceleration ETV
vector 379 tls.node[75].veinsmobility co2emission ETV
vector 380 tls.node[76].veinsmobility posx ETV
vector 381 tls.node[76].veinsmobility posy ETV
vector 382 tls.node[76].veinsmobility speed ETV
179	589912 4363 1365 3337 150 338 189 0.94328266119091 11.184843234218 408.26405433867 1693.4463541373
178	594275 4563 1365 3337 150 338 189 -4.5 2.4623434932088 -0.13124040155157 236.79001307498
177	598838 4444 1364 3337 149 338 190 0 17.108072465716 1403.8737991315 21248.242276982
176	603282 5525 1363 3337 148 338 191 436.4353035773 1710.549294331 229948.36143351 295556069.93706
175	608807 5520 1363 3337 148 338 191 2114.400482008 2299.9991600523 411914.57677392 888517334.80262
vector 383 tls.node[76].veinsmobility acceleration ETV
vector 384 tls.node[76].veinsmobility co2emission ETV
vector 385 tls.node[77].veinsmobility posx ETV
vector 386 tls.node[77].veinsmobility posy ETV
vector 387 tls.node[77].veinsmobility speed ETV
vector 388 tls.node[77].veinsmobility acceleration ETV
vector 389 tls.node[77].veinsmobility co2emission ETV
vector 390 tls.node[78].veinsmobility posx ETV
vector 391 tls.node[78].veinsmobility posy ETV
vector 392 tls.node[78].veinsmobility speed ETV
224	614829 3864 1408 3343 193 344 152 0.70112455231179 18.942139357366 615.25213726741 5108.3190560893
223	618693 4512 1408 3343 193 344 152 -4.5 2.5661658533849 15.214272760576 418.42434458522
222	623205 4417 1407 3343 192 344 153 4.288319246741 27.134553995526 2013.5628942207 32560.05175235
221	627622 4448 1406 3343 191 344 154 578.68176720702 1241.5657260028 149652.49316256 154657363.34295
220	632070 4443 1406 3343 191 344 154 1459.5617842655 2355.937070906 313344.8446027 652076229.39775
vector 393 tls.node[78].veinsmobility acceleration ETV
vector 394 tls.node[78].veinsmobility co2emission ETV
vector 395 tls.node[79].veinsmobility posx ETV
vector 396 tls.node[79].veinsmobility posy ETV
204	636716 4346 1394 3346 179 347 169 0.82707025588295 12.419835859752 554.10478553366 2951.7169903512
203	641062 5061 1394 3346 179 347 169 -4.5 2.4745098020183 20.568093247569 261.77979744592
202	646123 4919 1393 3346 178 347 170 0.65578875250006 23.325545330016 2328.8424454082 37263.390153566
201	651042 4946 1392 3346 177 347 171 998.07314261674 1965.5219203729 244872.93466243 366012040.27794
200	655988 4942 1392 3346 177 347 171 1067.20794439 2832.7501051746 368024.30424151 826233082.10309
vector 397 tls.node[79].veinsmobility speed ETV
219	660978 3942 1404 3347 189 348 160 0.82640446851036 17.317404906627 473.95020056093 2729.2899201313
218	664920 4484 1404 3347 189 348 160 -4.5 2.5595300220186 11.757140040124 359.07043309465
217	669404 4378 1403 3347 188 348 161 0 24.807610588765 1620.5541218409 21723.349110799
214	673782 4677 1402 3347 187 348 162 1013.6456400167 1734.1780332447 223316.69068319 317516640.27611
213	678459 4682 1402 3347 187 348 162 1802.6648857309 2899.6129761905 373494.26016829 872404982.95918
vector 398 tls.node[79].veinsmobility acceleration ETV
vector 399 tls.node[79].veinsmobility co2emission ETV
vector 400 tls.node[80].veinsmobility posx ETV
vector 401 tls.node[80].veinsmobility posy ETV
vector 402 tls.node[80].veinsmobility speed ETV
239	683392 3858 1424 3353 209 354 146 -0.54621179339094 25.551792351964 708.03795611415 7243.141584803
238	687250 4253 1424 3353 209 354 146 -4.5 2.5677169322735 -15.798636106694 489.38119410149
237	691503 4219 1423 3353 208 354 147 0 32.810678390276 2735.7859532404 66641.890690181
236	695722 4270 1422 3353 207 354 148 1060.0092365821 2253.3921058994 202834.2769951 290642140.84489
235	699992 4280 1422 3353 207 354 148 1061.1398455094 2132.4147239915 245609.53316536 435012693.19579
vector 403 tls.node[80].veinsmobility acceleration ETV
vector 404 tls.node[80].veinsmobility co2emission ETV
vector 405 tls.node[81].veinsmobility posx ETV
vector 406 tls.node[81].veinsmobility posy ETV
316	704475 2019 3068 3356 280 357 78 0.77221432569875 17.207559444594 349.74438433735 2806.0807281458
315	706494 2285 3068 3356 280 357 78 -4.5 2.575038263551 7.4291151038763 333.43888354439
312	708779 2284 2861 3356 279 357 79 2.1833568494534 24.341339523284 1072.2332611893 18341.041164242
308	711063 2310 2654 3356 278 357 80 989.57288206921 1241.6435201246 92554.392987114 107736816.36224
307	713373 2309 2654 3356 278 357 80 1357.2767995285 2147.5078548538 130238.89540048 217665476.91217
vector 407 tls.node[81].veinsmobility speed ETV
vector 408 tls.node[81].veinsmobility acceleration ETV
vector 409 tls.node[81].veinsmobility co2emission ETV
69	715839 6372 61 3358 60 359 300 -0.26537247654244 16.703272710794 755.16961408392 4506.1468432257
68	722211 6456 61 3358 60 359 300 -4.5 2.59110632597 -1.0296064714668 484.25688059438
67	728667 6369 60 3358 59 359 301 0 27.399928969448 2350.5089821402 42790.558489979
66	735036 8292 59 3358 58 359 302 699.90569216758 1244.8401425188 334904.29018212 379542220.96495
65	743328 8291 59 3358 58 359 302 1060.9529160161 2355.9195775497 591625.62803474 1204721301.7028
vector 410 tls.node[82].veinsmobility posx ETV
vector 411 tls.node[82].veinsmobility posy ETV
94	751713 6220 81 3359 80 360 281 0.61927064376137 10.452854583925 571.8089256996 2088.8842486004
93	757933 6672 81 3359 80 360 281 -4.5 2.5018454821547 17.495312700774 276.32123453906
92	764605 6468 80 3359 79 360 282 0 20.08730454294 1891.322261918 23933.763259465
91	771073 7818 79 3359 78 360 283 742.30452313805 2253.3101124176 349806.86190129 467570043.32724
90	778891 7814 79 3359 78 360 283 2095.7045796478 2482.2667065429 617108.85542986 1348025625.5795
vector 412 tls.node[82].veinsmobility speed ETV
149	786753 5545 565 3360 120 361 242 0.973 11.825758535607 505.96266761972 2097.8927491868
148	792298 5893 565 3360 120 361 242 -4.5 2.5309621767607 6.5022727788802 356.04477623764
147	798191 5754 415 3360 119 361 243 0 17.241246801028 1456.2271936562 16649.976349663
146	803945 7049 266 3360 118 361 244 742.86356118823 1210.8641438475 261269.24063318 284826637.76561
145	810994 7053 266 3360 118 361 244 2150.6414309038 2762.8981454961 555127.37923841 1270800299.3794
vector 413 tls.node[82].veinsmobility acceleration ETV
vector 414 tls.node[82].veinsmobility co2emission ETV
vector 415 tls.node[83].veinsmobility posx ETV
vector 416 tls.node[83].veinsmobility posy ETV
vector 417 tls.node[83].veinsmobility speed ETV
vector 418 tls.node[83].veinsmobility acceleration ETV
vector 419 tls.node[83].veinsmobility co2emission ETV
vector 420 tls.node[84].veinsmobility posx ETV
vector 421 tls.node[84].veinsmobility posy ETV
vector 422 tls.node[84].veinsmobility speed ETV
vector 423 tls.node[84].veinsmobility acceleration ETV
vector 424 tls.node[84].veinsmobility co2emission ETV
339	818658 1922 3298 3371 299 372 74 0.73435995597162 21.157559350447 426.24422490687 4203.3033201816
338	820580 2158 3298 3371 299 372 74 -4.5 2.5612795311492 9.1848188589675 441.77220936946
337	822738 2171 3297 3371 298 372 75 2.3970372814918 28.064976494484 1044.0624369022 17910.031208951
336	824909 2195 3296 3371 297 372 76 731.76823425012 1246.2800419739 80264.418298879 87661475.688547
335	827104 2195 3296 3371 297 372 76 1130.4155751734 1476.8790340879 101846.75346604 137551911.73829
vector 425 tls.node[85].veinsmobility posx ETV
vector 426 tls.node[85].veinsmobility posy ETV
64	829393 6929 58 3372 57 373 317 0.84119289724587 18.466528562947 879.50293507405 5881.1575264786
63	836322 7291 58 3372 57 373 317 -4.5 2.5672767461976 18.67770837712 537.94691924385
62	843613 7122 57 3372 56 373 318 0 25.878400000721 2737.876064119 46782.588688853
61	850735 8749 56 3372 55 373 319 516.93459107528 1241.9592601114 335896.23926871 368380843.18761
60	859484 8637 56 3372 55 373 319 1459.5739839705 2489.8622178942 656842.00975067 1374153185.6694
vector 427 tls.node[85].veinsmobility speed ETV
vector 428 tls.node[85].veinsmobility acceleration ETV
vector 429 tls.node[85].veinsmobility co2emission ETV
vector 430 tls.node[86].veinsmobility posx ETV
vector 431 tls.node[86].veinsmobility posy ETV
229	868372 4529 1411 3376 196 377 182 0.973 17.886394586516 608.52216883847 4128.7184639262
228	872901 5133 1411 3376 196 377 182 -4.5 2.5707336411113 10.447578928562 510.42783242407
227	878034 5030 1410 3376 195 377 183 0 25.708181629844 1881.0372862788 28376.367488956
226	883064 5315 1409 3376 194 377 184 742.09669742614 1241.9571663011 194665.83834071 210783084.9423
225	888379 5320 1409 3376 194 377 184 1223.6366321356 2332.3717098087 338733.35445095 650006808.54154
vector 432 tls.node[86].veinsmobility speed ETV
vector 433 tls.node[86].veinsmobility acceleration ETV
vector 434 tls.node[86].veinsmobility co2emission ETV
319	893856 2525 3281 3378 282 379 98 0.973 16.856313692922 406.17527256588 3021.8775554515
318	896381 2870 3281 3378 282 379 98 -4.5 2.5225474330364 -0.500724495487 365.39347894856
317	899251 2861 3280 3378 281 379 99 3.5192799574118 25.574591671006 1268.6027824033 19013.780447086
314	902112 2880 3068 3378 280 379 100 600.07457737402 1130.4905819868 87595.75530674 79879846.795464
313	904992 2892 3068 3378 280 379 100 961.0404043537 1143.1031641764 107636.87505176 116062493.14232
vector 435 tls.node[87].veinsmobility posx ETV
vector 436 tls.node[87].veinsmobility posy ETV
vector 437 tls.node[87].veinsmobility speed ETV
vector 438 tls.node[87].veinsmobility acceleration ETV
vector 439 tls.node[87].veinsmobility co2emission ETV
304	908135 2674 2257 3384 276 385 110 0.88536678908315 18.801956223535 415.49405434692 3488.3947597396
303	910809 2926 2257 3384 276 385 110 -4.5 2.5663105537184 10.715115772884 362.88201355794
302	913735 2900 2062 3384 275 385 111 0 24.957336445171 1054.6571072732 17304.118415896
301	916635 3239 1867 3384 274 385 112 647.21876054358 1130.4380343385 101108.53783641 93196216.706452
300	919874 3238 1867 3384 274 385 112 960.52313070682 1392.5212324274 130108.69564406 152142031.81628
vector 440 tls.node[88].veinsmobility posx ETV
vector 441 tls.node[88].veinsmobility posy ETV
vector 442 tls.node[88].veinsmobility speed ETV
vector 443 tls.node[88].veinsmobility acceleration ETV
vector 444 tls.node[88].veinsmobility co2emission ETV
vector 445 tls.node[89].veinsmobility posx ETV
vector 446 tls.node[89].veinsmobility posy ETV
vector 447 tls.node[89].veinsmobility speed ETV
vector 448 tls.node[89].veinsmobility acceleration ETV
vector 449 tls.node[89].veinsmobility co2emission ETV
vector 450 tls.node[90].veinsmobility posx ETV
vector 451 tls.node[90].veinsmobility posy ETV
vector 452 tls.node[90].veinsmobility speed ETV
vector 453 tls.node[90].veinsmobility acceleration ETV
vector 454 tls.node[90].veinsmobility co2emission ETV
vector 455 tls.node[91].veinsmobility posx ETV
vector 456 tls.node[91].veinsmobility posy ETV
364	923959 1967 3318 3395 319 396 78 0.92895709598964 17.158755253286 326.34905309172 2701.0023455846
363	925926 2129 3318 3395 319 396 78 -4.5 2.5235115224961 11.22110729258 287.87163960068
362	928055 2145 3317 3395 318 396 79 0 25.115351174045 892.47948859449 16040.648462179
361	930200 2314 3316 3395 317 396 80 581.89472239362 1286.1568969278 71673.79014963 67470234.855039
360	932514 2316 3316 3395 317 396 80 960.97921990299 1132.6132060975 85878.89732756 92394670.679492
vector 457 tls.node[91].veinsmobility speed ETV
vector 458 tls.node[91].veinsmobility acceleration ETV
vector 459 tls.node[91].veinsmobility co2emission ETV
324	934987 2855 3285 3398 286 399 114 0.973 18.004011680547 468.79099135719 3866.6064128544
323	937842 3100 3285 3398 286 399 114 -4.5 2.597180192871 11.875240813556 371.26085267631
322	940942 3090 3284 3398 285 399 115 0 26.770939960508 1419.4821771445 26910.020908017
321	944032 3353 3283 3398 284 399 116 1002.3579201231 1705.1454721274 160799.20726076 228795404.26995
320	947385 3356 3283 3398 284 399 116 1450.3589837216 2132.4858077164 220622.21354891 429076892.60225
vector 460 tls.node[92].veinsmobility posx ETV
vector 461 tls.node[92].veinsmobility posy ETV
vector 462 tls.node[92].veinsmobility speed ETV
49	950883 7849 38 3400 37 401 365 0.71515988408865 18.144156531734 902.18005096228 4777.194903963
48	958732 8106 38 3400 37 401 365 -4.5 2.5631386799971 11.930797336933 539.85828391067
47	966838 7925 37 3400 36 401 366 0 26.29017958042 2929.614794585 45054.022393516
43	974763 10040 36 3400 35 401 367 671.64111038678 1667.2080426018 447052.36744765 568916333.64525
42	984803 10040 36 3400 35 401 367 2147.9226942812 3479.295318828 881287.05011096 2170259637.6375
vector 463 tls.node[92].veinsmobility acceleration ETV
vector 464 tls.node[92].veinsmobility co2emission ETV
vector 465 tls.node[93].veinsmobility posx ETV
vector 466 tls.node[93].veinsmobility posy ETV
vector 467 tls.node[93].veinsmobility speed ETV
vector 468 tls.node[93].veinsmobility acceleration ETV
vector 469 tls.node[93].veinsmobility co2emission ETV
311	995203 3272 2861 3406 279 407 129 0.973 13.848902741751 411.06799578161 2280.5631604704
310	998475 3816 2861 3406 279 407 129 -4.5 2.5971215202007 0.062571358797141 321.5195926673
309	1002291 3751 2654 3406 278 407 130 0.22828277377577 22.27015905914 1500.9761270181 20427.213512707
306	1006042 3787 2453 3406 277 407 131 510.32837026032 1309.4352111789 139523.4891532 158022895.33835
305	1009829 3787 2453 3406 277 407 131 960.55050191382 1550.7476206838 153917.14981028 184716689.89438
vector 470 tls.node[94].veinsmobility posx ETV
vector 471 tls.node[94].veinsmobility posy ETV
vector 472 tls.node[94].veinsmobility speed ETV
vector 473 tls.node[94].veinsmobility acceleration ETV
vector 474 tls.node[94].veinsmobility co2emission ETV
vector 475 tls.node[95].veinsmobility posx ETV
vector 476 tls.node[95].veinsmobility posy ETV
vector 477 tls.node[95].veinsmobility speed ETV
vector 478 tls.node[95].veinsmobility acceleration ETV
vector 479 tls.node[95].veinsmobility co2emission ETV
394	1014118 2115 3344 3424 345 425 81 0.973 11.882891357109 329.69431066368 2031.8584282532
393	1016233 2360 3344 3424 345 425 81 -4.5 2.5908294356661 14.186566190679 384.68514681877
392	1018593 2366 3343 3424 344 425 82 1.7391373713501 16.249898295036 866.62951978755 10287.576191597
391	1020959 2397 3342 3424 343 425 83 826.71730617786 1324.4043615863 89678.317927559 99608541.178115
390	1023356 2397 3342 3424 343 425 83 914.15990249563 1293.2660322881 94456.274404667 108240189.59583
vector 480 tls.node[96].veinsmobility posx ETV
vector 481 tls.node[96].veinsmobility posy ETV
354	1025847 3010 3311 3425 312 426 115 -0.52767308642219 19.131173378428 518.75598927438 4184.3026783134
353	1028857 3373 3311 3425 312 426 115 -4.5 2.598312165821 9.9182586220261 355.85101269847
352	1032230 3352 3310 3425 311 426 116 0.36157761102171 28.523411140517 1864.6569419242 38066.316923516
351	1035582 3381 3309 3425 310 426 117 998.43323045219 1678.6434391237 149068.9210166 194561931.04399
350	1038963 3384 3309 3425 310 426 117 1060.1687099671 2132.3595686309 191722.51829606 336186809.15936
vector 482 tls.node[96].veinsmobility speed ETV
vector 483 tls.node[96].veinsmobility acceleration ETV
vector 484 tls.node[96].veinsmobility co2emission ETV
vector 485 tls.node[97].veinsmobility posx ETV
vector 486 tls.node[97].veinsmobility posy ETV
vector 487 tls.node[97].veinsmobility speed ETV
vector 488 tls.node[97].veinsmobility acceleration ETV
vector 489 tls.node[97].veinsmobility co2emission ETV
334	1042755 3766 3291 3432 292 433 142 -0.34719204556002 18.906598583603 671.49022005771 6010.5601596129
333	1046521 4120 3291 3432 292 433 142 -4.5 2.5735109356465 9.0358037384059 512.13338760473
332	1050641 4152 3290 3432 291 433 143 0.0023237178323386 28.286009243019 2262.8664060755 43972.303327916
331	1054793 4167 3289 3432 290 433 144 1029.2693959401 1727.1780011668 199674.7869384 284103716.43218
330	1058960 4158 3289 3432 290 433 144 1060.4170600578 2132.3429784198 243337.20656562 432036772.70665
344	1063118 3377 3305 3433 306 434 129 -0.0074173649278686 20.140042703576 537.22585215925 4354.8872412954
343	1066495 3824 3305 3433 306 434 129 -4.5 2.5956826250535 -2.9053103254413 401.57534190066
342	1070319 3757 3304 3433 305 434 130 4.7364648190959 27.875193373465 1964.4638001103 34123.850177767
341	1074076 3786 3303 3433 304 434 131 989.56354960201 1745.7163732813 180104.17026829 255667734.73214
340	1077862 3789 3303 3433 304 434 131 1356.8731332057 2132.4382749086 231522.5066227 419019342.17017
vector 490 tls.node[98].veinsmobility posx ETV
vector 491 tls.node[98].veinsmobility posy ETV
vector 492 tls.node[98].veinsmobility speed ETV
vector 493 tls.node[98].veinsmobility acceleration ETV
vector 494 tls.node[98].veinsmobility co2emission ETV
329	1081902 4019 3288 3439 289 440 152 0.16178855813547 18.037348593286 567.58296695972 4143.8279422246
328	1085921 4564 3288 3439 289 440 152 -4.5 2.5442034952343 -13.384239606304 262.69739210908
327	1090485 4418 3287 3439 288 440 153 5.8723967692114 27.249232878584 2810.4734311525 57098.097217631
326	1094903 4454 3286 3439 287 440 154 1227.217562778 1961.9858617163 239130.65696765 378343251.05996
325	1099357 4449 3286 3439 287 440 154 1017.8243383643 2132.4195244887 258186.85128022 447191120.04729
424	1103806 1862 3368 3441 369 442 74 0.973 9.9435163664887 283.51005736064 1645.0433694235
423	1105668 2143 3368 3441 369 442 74 -4.5 2.5620959043736 12.288116001781 332.43201587953
422	1107811 2151 3367 3441 368 442 75 0 17.332267864508 741.52879174007 8612.6406891914
421	1109962 2199 3366 3441 367 442 76 1061.4275347698 1295.4884355976 88550.169342949 103537803.0886
420	1112161 2200 3366 3441 367 442 76 1058.0544974863 1431.2904505439 89381.824038115 105970373.25527
vector 495 tls.node[99].veinsmobility posx ETV
vector 496 tls.node[99].veinsmobility posy ETV
vector 497 tls.node[99].veinsmobility speed ETV
vector 498 tls.node[99].veinsmobility acceleration ETV
vector 499 tls.node[99].veinsmobility co2emission ETV
vector 500 tls.node[100].veinsmobility posx ETV
vector 501 tls.node[100].veinsmobility posy ETV
vector 502 tls.node[100].veinsmobility speed ETV
vector 503 tls.node[100].veinsmobility acceleration ETV
vector 504 tls.node[100].veinsmobility co2emission ETV
vector 505 tls.node[101].veinsmobility posx ETV
vector 506 tls.node[101].veinsmobility posy ETV
vector 507 tls.node[101].veinsmobility speed ETV
vector 508 tls.node[101].veinsmobility acceleration ETV
vector 509 tls.node[101].veinsmobility co2emission ETV
279	1115124 5198 1467 3456 252 457 206 0.973 11.452295078845 519.55879798455 2106.787077256
278	1120322 6240 1467 3456 252 457 206 -4.5 2.5647017492447 -0.66912618300412 265.36296971249
277	1126562 5982 1466 3456 251 457 207 4.7541451695201 19.898853270153 2342.9117490705 28611.125412211
276	1132544 6009 1465 3456 250 457 208 699.90569216758 1667.2063025559 259038.93581272 343860947.08126
275	1138553 6002 1465 3456 250 457 208 2147.7642528533 2955.1366629667 504156.87655403 1236338089.5771
vector 510 tls.node[102].veinsmobility posx ETV
vector 511 tls.node[102].veinsmobility posy ETV
vector 512 tls.node[102].veinsmobility speed ETV
vector 513 tls.node[102].veinsmobility acceleration ETV
vector 514 tls.node[102].veinsmobility co2emission ETV
484	1144811 1097 3427 3468 428 469 42 0.973 10.089440244793 124.93283727015 584.82076974451
483	1145908 1251 3427 3468 428 469 42 -4.5 2.4347328570439 -0.81664219626691 72.348009440629
482	1147159 1236 3426 3468 427 469 43 5.5887016567485 16.226243758367 618.7290127002 9181.9026783627
481	1148395 1272 3425 3468 426 469 44 344.00824313786 714.7936265305 25558.817627072 15414153.300178
480	1149667 1271 3425 3468 426 469 44 2501.7779938744 2826.4637664556 117046.47663088 311845900.49394
vector 515 tls.node[103].veinsmobility posx ETV
vector 516 tls.node[103].veinsmobility posy ETV
169	1151034 7016 1358 3469 143 470 328 0.34230907954279 16.149220900465 637.77889147919 2926.028287036
168	1158050 6520 1358 3469 143 470 328 -4.5 2.5546129024122 15.181712846272 340.80684035557
167	1164570 6469 1357 3469 142 470 329 0 23.408959481033 1435.0034141463 25787.892361041
166	1171039 9554 1356 3469 141 470 330 1197.5671218379 1325.1657563886 403207.63044035 492859091.09371
165	1180593 9561 1356 3469 141 470 330 989.45305396096 2311.6223977115 639984.40844628 1286174031.9046
vector 517 tls.node[103].veinsmobility speed ETV
vector 518 tls.node[104].veinsmobility posx ETV
vector 519 tls.node[104].veinsmobility posy ETV
vector 520 tls.node[103].veinsmobility acceleration ETV
vector 521 tls.node[103].veinsmobility co2emission ETV
vector 522 tls.node[105].veinsmobility posx ETV
vector 523 tls.node[105].veinsmobility posy ETV
vector 524 tls.node[104].veinsmobility speed ETV
189	1190555 6676 1378 3472 163 473 311 -0.57723718053725 18.171187455679 700.171999932 4433.4334005628
188	1197231 6170 1378 3472 163 473 311 -4.5 2.5753411050187 6.7488863111715 430.29548991538
187	1203401 6154 1377 3472 162 473 312 0 29.132488641394 1581.6690142862 33251.354328799
186	1209555 9061 1376 3472 161 473 313 995.33972157717 1235.0083244439 374156.83550671 448162406.72395
185	1218616 9062 1376 3472 161 473 313 1079.4273845865 2301.0617334512 602311.05437409 1198771618.4968
vector 525 tls.node[104].veinsmobility acceleration ETV
vector 526 tls.node[104].veinsmobility co2emission ETV
vector 527 tls.node[105].veinsmobility speed ETV
vector 528 tls.node[105].veinsmobility acceleration ETV
vector 529 tls.node[105].veinsmobility co2emission ETV
vector 530 tls.node[106].veinsmobility posx ETV
vector 531 tls.node[106].veinsmobility posy ETV
vector 532 tls.node[106].veinsmobility speed ETV
vector 533 tls.node[106].veinsmobility acceleration ETV
vector 534 tls.node[106].veinsmobility co2emission ETV
vector 535 tls.node[107].veinsmobility posx ETV
vector 536 tls.node[107].veinsmobility posy ETV
409	1228301 3170 3358 5064 359 479 121 0.58284826680745 19.681839794894 583.96527048811 4881.0529139067
408	1231471 3548 3358 5064 359 479 121 -4.5 2.591879834584 21.966267561044 429.58322481221
407	1235019 3533 3357 5064 358 479 122 0.37683961733651 25.959309407533 1964.5257895457 37975.595418613
406	1238552 3555 3356 5064 357 479 123 248.8053581212 1143.0966742813 96256.314959379 85482411.499314
405	1242107 3552 3356 5064 357 479 123 939.49983234538 1456.3312156906 135045.28603273 149972532.34708
vector 537 tls.node[107].veinsmobility speed ETV
vector 538 tls.node[107].veinsmobility acceleration ETV
vector 539 tls.node[107].veinsmobility co2emission ETV
349	1245819 4519 3308 5605 309 481 173 -0.12367593498559 20.113779701419 776.01934179791 6556.7777175767
348	1250338 5134 3308 5605 309 481 173 -4.5 2.5865529294591 -1.8315474497904 515.68469149374
347	1255472 5024 3307 5605 308 481 174 3.490725789591 28.082678729773 2936.3518855224 56328.948871522
346	1260496 5057 3306 5605 307 481 175 436.4353035773 1245.2261636482 158571.97308448 156193127.94026
345	1265553 5059 3306 5605 307 481 175 940.22120717547 2299.9991600523 276915.45711124 477119639.73737
vector 540 tls.node[108].veinsmobility posx ETV
vector 541 tls.node[108].veinsmobility posy ETV
vector 542 tls.node[108].veinsmobility speed ETV
289	1270757 5187 1474 6407 259 484 226 0.973 14.253387563061 451.68600750917 1789.3226098299
288	1275944 5399 1474 6407 259 484 226 -4.5 2.5838105578208 1.7287044067742 265.22557777825
287	1281343 5273 1473 6407 258 484 227 0 18.994313728596 1436.646143362 20791.411858729
286	1286616 6597 1472 6407 257 484 228 1065.610351027 1300.9265491258 278815.99431845 341209423.27821
285	1293213 6594 1472 6407 257 484 228 917.97927514397 2132.7428765581 393668.03417481 721664453.08341
489	1299807 1384 3431 6407 432 484 53 0.973 9.3483562213386 177.43832612973 964.10664093554
488	1301191 1557 3431 6407 432 484 53 -4.5 2.566158777941 3.5600332621772 192.36135085644
487	1302748 1551 3430 6407 431 484 54 2.44 15.399890500914 500.68054573056 5394.2713575857
486	1304299 1578 3429 6407 430 484 55 573.44789216464 829.9799224338 39503.652286729 28855933.412625
485	1305877 1578 3429 6407 430 484 55 2275.6792221646 2487.7 129300.38995619 304164776.9495
vector 543 tls.node[108].veinsmobility acceleration ETV
vector 544 tls.node[108].veinsmobility co2emission ETV
199	1307566 6539 1391 6676 176 485 310 -0.25597084570104 17.801845923303 567.85998615392 3018.4792957502
198	1314105 5899 1391 6676 176 485 310 -4.5 2.5891991052078 15.934069769993 223.95166620418
197	1320004 5841 1390 6676 175 485 311 0 26.224706943573 1197.4309099228 26828.726977229
196	1325845 8824 1389 6676 174 485 312 1137.0922332859 1235.0245640058 378632.10024419 459537062.11714
195	1334669 9039 1389 6676 174 485 312 1063.9431516995 2124.5134869698 627701.27265301 1284475302.9845
vector 545 tls.node[109].veinsmobility posx ETV
vector 546 tls.node[109].veinsmobility posy ETV
vector 547 tls.node[109].veinsmobility speed ETV
249	1343853 6143 1431 7192 216 487 272 0.77691946878375 13.097945579988 575.39745077298 2378.6161979985
248	1349996 6165 1431 7192 216 487 272 -4.5 2.5583893903065 -2.6850092461442 417.14643206441
247	1356161 6066 1430 7192 215 487 273 0 20.786091651574 1641.8772866963 25676.549070305
246	1362227 7665 1429 7192 214 487 274 954.36238937748 1235.1152383096 324640.79029028 385896752.30002
245	1369892 7932 1429 7192 214 487 274 1079.4226002495 2325.7178277063 503549.30886236 970006975.95518
vector 548 tls.node[109].veinsmobility acceleration ETV
vector 549 tls.node[109].veinsmobility co2emission ETV
vector 550 tls.node[110].veinsmobility posx ETV
vector 551 tls.node[110].veinsmobility posy ETV
vector 552 tls.node[110].veinsmobility speed ETV
414	1378080 3346 3361 7452 362 490 129 0.86729277294912 18.375038056197 688.07049045 6588.3368910625
413	1381426 3675 3361 7452 362 490 129 -4.5 2.5922006443376 13.227487560007 548.36286794405
412	1385101 3704 3360 7452 361 490 130 0 29.177695787955 2030.8286294437 40892.167046358
411	1388805 3783 3359 7452 360 490 131 567.54313351499 1234.8112796816 116498.8234528 108447345.014
410	1392588 3781 3359 7452 360 490 131 961.77607034152 1476.8963734501 163662.167542 207582657.23814
vector 553 tls.node[110].veinsmobility acceleration ETV
vector 554 tls.node[110].veinsmobility co2emission ETV
259	1396480 6618 1444 7453 229 491 263 0.973 10.992025135999 603.87338903351 2243.7531252175
258	1403098 7937 1444 7453 229 491 263 -4.5 2.5837499204557 4.6724777621794 351.48101620525
257	1411035 7620 1443 7453 228 491 264 1.2618545432162 17.807049549147 2438.0665012438 25129.537544166
256	1418655 7651 1442 7453 227 491 265 632.57968534286 1222.1129650723 235968.74545079 220412265.4504
255	1426306 7655 1442 7453 227 491 265 2150.6402917507 3309.5442979642 707218.85337809 1921651124.5738
469	1433961 2206 3404 7454 405 492 88 0.973 11.453844468762 264.0463229351 1323.5951210254
468	1436167 2598 3404 7454 405 492 88 -4.5 2.5103725137422 -4.9107025843062 310.18299825725
467	1438765 2573 3403 7454 404 492 89 2.8755239007735 17.052077957907 845.12239033443 8839.8508367747
466	1441338 2597 3402 7454 403 492 90 895.09280640333 1301.0977947771 99984.496571138 112453898.26523
465	1443935 2603 3402 7454 403 492 90 915.8184979242 1159.7075435601 97822.287545048 106587210.96599
vector 555 tls.node[111].veinsmobility posx ETV
vector 556 tls.node[111].veinsmobility posy ETV
474	1446634 1985 3417 7455 418 493 76 0.973 19.71396780155 383.68526355281 3458.9439121866
473	1448619 2237 3417 7455 418 493 76 -4.5 2.5864453264745 12.232804643629 313.99136277002
472	1450856 2221 3416 7455 417 493 77 1.7630054913461 29.143773866815 1092.7283314229 20104.910356648
471	1453077 2245 3415 7455 416 493 78 704.1220023424 1129.238810242 72363.696708819 68245540.239878
470	1455322 2259 3415 7455 416 493 78 961.41239319743 1317.2987835477 88436.182029813 100818119.1653
vector 557 tls.node[111].veinsmobility speed ETV
vector 558 tls.node[111].veinsmobility acceleration ETV
vector 559 tls.node[111].veinsmobility co2emission ETV
vector 560 tls.node[112].veinsmobility posx ETV
vector 561 tls.node[112].veinsmobility posy ETV
389	1457837 3894 3341 7458 342 496 155 -1.370137567453 22.435288028288 538.69931378359 4155.4647824171
388	1461731 4379 3341 7458 342 496 155 -4.5 2.5913193883607 16.248618878653 366.23852648152
387	1466110 4305 3340 7458 341 496 156 0 30.770718091742 1776.2651045649 30035.859506495
386	1470415 4528 3339 7458 340 496 157 1093.8223360819 1694.5202272666 211996.02385115 291578269.03305
385	1474943 4530 3339 7458 340 496 157 1111.13 2132.2360565936 265435.29988919 463964421.03558
vector 562 tls.node[112].veinsmobility speed ETV
vector 563 tls.node[112].veinsmobility acceleration ETV
vector 564 tls.node[112].veinsmobility co2emission ETV
vector 565 tls.node[113].veinsmobility posx ETV
vector 566 tls.node[113].veinsmobility posy ETV
vector 567 tls.node[113].veinsmobility speed ETV
vector 568 tls.node[113].veinsmobility acceleration ETV
vector 569 tls.node[113].veinsmobility co2emission ETV
299	1479889 5465 1487 7466 272 504 233 -0.16734534264296 18.000159864832 634.91622547776 3703.6609730623
298	1485354 5708 1487 7466 272 504 233 -4.5 2.5480160147417 12.634038201975 474.64816809313
297	1491062 5639 1486 7466 271 504 234 0 26.27093674611 1867.9492994044 33047.513983743
296	1496701 6802 1485 7466 270 504 235 1058.2671795564 1437.2093089629 281317.66906266 337655394.72121
295	1503503 6798 1485 7466 270 504 235 1079.4295701742 2150.3054997594 410824.97339715 752954276.98278
vector 570 tls.node[114].veinsmobility posx ETV
vector 571 tls.node[114].veinsmobility posy ETV
vector 572 tls.node[114].veinsmobility speed ETV
419	1510446 3522 3364 7469 365 507 143 0.88934170398883 17.616453645264 450.17399521641 2964.6521601772
418	1513968 3815 3364 7469 365 507 143 -4.5 2.5458289652597 10.896934155027 421.92165098248
417	1517783 3783 3363 7469 364 507 144 0 25.482196585512 1184.3034202194 18560.957692326
416	1521566 4189 3362 7469 363 507 145 1089.756363128 1318.7434228924 176458.90063632 214939250.92954
415	1525755 4187 3362 7469 363 507 145 1562.2891245639 2583.8730266683 315275.01886245 695810632.29231
449	1529942 3018 3391 7469 392 507 116 0.44525363190308 15.226999904129 409.42793374191 2348.8116628643
448	1532960 3409 3391 7469 392 507 116 -4.5 2.4971478005871 -0.092703161668028 153.82614467916
447	1536369 3312 3390 7469 391 507 117 0 22.194770824626 2134.4869332593 44762.379251021
446	1539681 3416 3389 7469 390 507 118 371.89186768203 1623.4627474504 116257.56862009 129142644.20461
445	1543097 3411 3389 7469 390 507 118 30.114878825046 1737.0576965212 108954.92018885 125952627.30295
vector 573 tls.node[114].veinsmobility acceleration ETV
vector 574 tls.node[114].veinsmobility co2emission ETV
vector 575 tls.node[115].veinsmobility posx ETV
vector 576 tls.node[115].veinsmobility posy ETV
vector 577 tls.node[115].veinsmobility speed ETV
vector 578 tls.node[115].veinsmobility acceleration ETV
vector 579 tls.node[115].veinsmobility co2emission ETV
vector 580 tls.node[116].veinsmobility posx ETV
vector 581 tls.node[116].veinsmobility posy ETV
369	1546971 4723 3324 7475 325 513 189 0.34471502993577 18.062944968171 704.752295462 5246.9118989757
368	1551694 5172 3324 7475 325 513 189 -4.5 2.5949028337142 -14.85971842379 514.49972195932
367	1556866 5078 3323 7475 324 513 190 0 29.116536934766 2698.0838141832 58623.306804124
366	1561944 5524 3322 7475 323 513 191 1001.8391918878 2253.3921058994 275113.11906306 414775258.72937
365	1567468 5528 3322 7475 323 513 191 1061.3086427463 2132.4531362971 337988.45830902 631059369.85213
vector 582 tls.node[116].veinsmobility speed ETV
vector 583 tls.node[116].veinsmobility acceleration ETV
vector 584 tls.node[116].veinsmobility co2emission ETV
vector 585 tls.node[117].veinsmobility posx ETV
vector 586 tls.node[117].veinsmobility posy ETV
vector 587 tls.node[117].veinsmobility speed ETV
vector 588 tls.node[117].veinsmobility acceleration ETV
vector 589 tls.node[117].veinsmobility co2emission ETV
vector 590 tls.node[118].veinsmobility posx ETV
vector 591 tls.node[118].veinsmobility posy ETV
vector 592 tls.node[118].veinsmobility speed ETV
vector 593 tls.node[118].veinsmobility acceleration ETV
vector 594 tls.node[118].veinsmobility co2emission ETV
244	1573668 7053 1428 7485 213 523 311 0.3797550347749 16.519794215361 667.74134922154 3127.5344605707
243	1580721 7024 1428 7485 213 523 311 -4.5 2.5409117233707 15.926197889283 364.04914098028
242	1587745 6885 1427 7485 212 523 312 0 23.546088587966 1922.0212777606 32506.912633583
241	1594630 9065 1426 7485 211 523 313 924.55344262295 1650.4830066076 391562.47866859 497696345.65068
240	1603695 9067 1426 7485 211 523 313 1064.5089086351 2235.1875962277 595530.67573342 1177981549.1374
vector 595 tls.node[119].veinsmobility posx ETV
vector 596 tls.node[119].veinsmobility posy ETV
vector 597 tls.node[119].veinsmobility speed ETV
444	1612907 3689 3388 7492 389 530 142 0.13588989972679 15.233752917693 447.780561523 2780.2754301875
443	1616596 4263 3388 7492 389 530 142 -4.5 2.5826087539084 -8.8789871745814 243.50145138578
442	1620859 4128 3387 7492 388 530 143 4.2710179578511 28.321806184838 2145.8416126909 35320.935797656
441	1624987 4161 3386 7492 387 530 144 1091.6825655676 1896.7329952933 208201.51989409 307739911.98495
440	1629148 4158 3386 7492 387 530 144 872.01026174212 1553.0261551489 179921.56558601 232262501.94336
vector 598 tls.node[119].veinsmobility acceleration ETV
vector 599 tls.node[119].veinsmobility co2emission ETV
vector 600 tls.node[120].veinsmobility posx ETV
vector 601 tls.node[120].veinsmobility posy ETV
vector 602 tls.node[120].veinsmobility speed ETV
379	1633562 4564 3334 7496 335 534 200 0.43094767574626 16.99213256001 462.41405715245 2487.6108551053
378	1638126 4645 3334 7496 335 534 200 -4.5 2.5839676992036 11.387490332436 241.35304136
375	1642771 4563 3333 7496 334 534 201 0 25.143835777361 1435.6672001369 23771.810427946
373	1647334 5844 3332 7496 333 534 202 807.050828365 1227.8415773909 232135.28547938 269771051.19376
372	1653178 5839 3332 7496 333 534 202 1491.2781993816 2162.0373877246 410070.52898989 836836398.36762
vector 603 tls.node[120].veinsmobility acceleration ETV
vector 604 tls.node[120].veinsmobility co2emission ETV
vector 605 tls.node[121].veinsmobility posx ETV
vector 606 tls.node[121].veinsmobility posy ETV
521	1659224 1690 3471 7498 472 536 65 0.973 8.093935237967 184.82317102805 780.90937617399
520	1660914 1944 3471 7498 472 536 65 -4.5 2.5942824369064 8.9979949441949 163.68893245525
517	1662858 1907 3470 7498 471 536 66 2.3827107132412 12.409894015754 639.98287223639 6695.0361233658
516	1664765 1936 3469 7498 470 536 67 836.11167995271 1018.9297993129 62906.653656259 59251960.506498
515	1666701 1934 3469 7498 470 536 67 1001.2365262706 1415.1679383804 82007.382703898 101454461.02085
vector 607 tls.node[121].veinsmobility speed ETV
vector 608 tls.node[121].veinsmobility acceleration ETV
vector 609 tls.node[121].veinsmobility co2emission ETV
454	1668795 3512 3394 7503 395 541 147 -0.13558139055153 18.471838896179 539.58511210286 4367.7481160728
453	1672307 3814 3394 7503 395 541 147 -4.5 2.591643208568 12.146653468542 434.98006376711
452	1676121 3789 3393 7503 394 541 148 0 28.596794814375 1372.7718217884 24183.124903353
451	1679910 4267 3392 7503 393 541 149 929.90795909142 1242.1594222239 175139.28290381 207275512.91776
450	1684177 4311 3392 7503 393 541 149 1201.0512240013 2317.7010561199 279798.35512219 545990953.34261
399	1688488 5023 3348 7507 349 545 197 0.973 20.56654102697 645.98855615927 4237.6020555427
398	1693511 5823 3348 7507 349 545 197 -4.5 2.5771502817282 5.3443185265828 563.49584684411
397	1699334 5717 3347 7507 348 545 198 0 27.752017749422 2129.4185613574 30688.117684079
396	1705051 5746 3346 7507 347 545 199 1198.1009367525 1694.8694057311 269453.66674586 370493498.78458
395	1710797 5743 3346 7507 347 545 199 1111.13 2336.8946326197 358946.57434091 676702864.5044
vector 610 tls.node[122].veinsmobility posx ETV
vector 611 tls.node[122].veinsmobility posy ETV
vector 612 tls.node[122].veinsmobility speed ETV
vector 613 tls.node[122].veinsmobility acceleration ETV
vector 614 tls.node[122].veinsmobility co2emission ETV
104	1716796 10185 87 7510 86 548 463 0.38048209178174 19.270683665078 955.69894893653 4674.3575146857
103	1726981 10136 87 7510 86 548 463 -4.5 2.503709328291 5.341991705748 598.29209363133
102	1737117 9944 86 7510 85 548 464 0 26.049207459983 2505.4963561171 36986.663426706
101	1747061 13400 85 7510 84 548 465 789.19127655935 1667.2593031277 574236.69552784 725107529.60318
100	1760461 13148 85 7510 84 548 465 1207.9117574282 2705.0489937225 942056.68650327 1969984548.4445
vector 615 tls.node[123].veinsmobility posx ETV
vector 616 tls.node[123].veinsmobility posy ETV
vector 617 tls.node[123].veinsmobility speed ETV
vector 618 tls.node[123].veinsmobility acceleration ETV
vector 619 tls.node[123].veinsmobility co2emission ETV
vector 620 tls.node[124].veinsmobility posx ETV
vector 621 tls.node[124].veinsmobility posy ETV
vector 622 tls.node[124].veinsmobility speed ETV
vector 623 tls.node[124].veinsmobility acceleration ETV
vector 624 tls.node[124].veinsmobility co2emission ETV
vector 625 tls.node[125].veinsmobility posx ETV
vector 626 tls.node[125].veinsmobility posy ETV
vector 627 tls.node[125].veinsmobility speed ETV
vector 628 tls.node[125].veinsmobility acceleration ETV
vector 629 tls.node[125].veinsmobility co2emission ETV
377	1774377 5862 3334 7522 335 560 226 0.47930154003858 13.771027611723 731.99623896174 4188.5804653274
376	1780239 6737 3334 7522 335 560 226 -4.5 2.5380126828328 -3.8377536198824 354.67904512149
374	1786976 6486 3333 7522 334 560 227 0 24.387094128489 3397.8580690327 63651.425958071
371	1793462 6593 3332 7522 333 560 228 245.844474664 1235.1599028168 193852.68556373 187309601.70295
370	1800055 6577 3332 7522 333 560 228 960.64716173335 2251.8949260926 363152.86917412 631410410.40155
479	1806632 3653 3421 7524 422 562 141 0.96939379236513 17.401989734738 609.85716779932 4901.3846411519
478	1810285 4160 3421 7524 422 562 141 -4.5 2.5790566552896 8.5043760152737 522.96498944943
477	1814445 4106 3420 7524 421 562 142 2.4065442790044 29.720442290163 1816.9238361734 28665.251565501
476	1818551 4133 3419 7524 420 562 143 787.97400021271 1380.862280526 165927.76976721 197204390.03654
475	1822684 4134 3419 7524 420 562 143 1186.3290012053 2477.5870855458 258931.61974844 499020490.11533
vector 630 tls.node[126].veinsmobility posx ETV
vector 631 tls.node[126].veinsmobility posy ETV
vector 632 tls.node[126].veinsmobility speed ETV
vector 633 tls.node[126].veinsmobility acceleration ETV
vector 634 tls.node[126].veinsmobility co2emission ETV
vector 635 tls.node[127].veinsmobility posx ETV
vector 636 tls.node[127].veinsmobility posy ETV
vector 637 tls.node[127].veinsmobility speed ETV
254	1827219 8123 1438 7532 223 570 348 0.20404473360262 15.279160648983 770.73003323141 3791.6183441459
253	1835342 8656 1438 7532 223 570 348 -4.5 2.5815250344807 9.354253741911 512.18383868153
252	1843998 8416 1437 7532 222 570 349 0 23.976508630734 2115.0543629136 27031.792210145
251	1852414 10106 1436 7532 221 570 350 829.47753794144 1561.395407394 424831.87890571 524739727.6117
250	1862520 10119 1436 7532 221 570 350 1210.6051542699 2588.0901201736 706774.74472727 1487243126.5482
vector 638 tls.node[127].veinsmobility acceleration ETV
vector 639 tls.node[127].veinsmobility co2emission ETV
269	1872750 7859 1454 7540 239 578 340 -1.1111508954344 20.818590658892 936.63099326422 6564.5338207521
268	1880609 8066 1454 7540 239 578 340 -4.5 2.5593781702686 3.3339494649323 545.88801418116
267	1888675 7887 1453 7540 238 578 341 0 30.811117933012 2909.7801054238 61508.108694393
266	1896562 9775 1452 7540 237 578 342 567.54313351499 1710.6902939675 433557.46703604 574096052.66628
265	1906337 9889 1452 7540 237 578 342 961.62287940176 2151.1836926945 652845.27756873 1292588732.6614
294	1916226 7197 1481 7540 266 578 313 0.45619415280173 19.342756968047 740.0825604244 4099.0058733191
293	1923423 7384 1481 7540 266 578 313 -4.5 2.5791663046926 7.6470966012208 424.98655541956
292	1930807 7278 1480 7540 265 578 314 0 26.998033889695 2306.1997330974 36180.01669051
291	1938085 9111 1479 7540 264 578 315 864.26937192214 1235.0028786769 363070.64767646 422818724.69973
290	1947196 9107 1479 7540 264 578 315 1130.3810720524 3311.0205881093 704722.95139267 1655078771.0667
vector 640 tls.node[128].veinsmobility posx ETV
vector 641 tls.node[128].veinsmobility posy ETV
vector 642 tls.node[128].veinsmobility speed ETV
549	1956448 2469 7450 7542 488 580 93 0.83311253199718 20.81667173446 395.06677411346 3339.317245664
548	1958917 2741 7450 7542 488 580 93 -4.5 2.5767980017466 10.650715958877 301.20897086053
547	1961658 2722 7192 7542 487 580 94 0 27.015343146473 1299.1241277205 23124.696480242
546	1964380 2745 6934 7542 486 580 95 1227.3317650649 1709.4446892499 137429.35808783 201876031.60619
545	1967125 2746 6934 7542 486 580 95 1547.1238140069 2140.1728612598 186809.88851838 372331616.07948
vector 643 tls.node[128].veinsmobility acceleration ETV
vector 644 tls.node[128].veinsmobility co2emission ETV
vector 645 tls.node[129].veinsmobility posx ETV
vector 646 tls.node[129].veinsmobility posy ETV
vector 647 tls.node[129].veinsmobility speed ETV
vector 648 tls.node[129].veinsmobility acceleration ETV
vector 649 tls.node[129].veinsmobility co2emission ETV
464	1970238 4507 3401 7547 402 585 184 -1.2044949467906 23.328240782803 665.47622702734 5297.2431961385
463	1974745 4754 3401 7547 402 585 184 -4.5 2.5966426531551 29.958941017733 441.7254773983
462	1979499 4686 3400 7547 401 585 185 0 31.265873340647 1824.3657631444 40507.201031506
461	1984185 5383 3399 7547 400 585 186 1184.0244998232 1971.9820473731 279916.57753758 432584602.6969
460	1989568 5373 3399 7547 400 585 186 1057.558297226 2325.727511909 382351.60750018 800481383.11757
vector 650 tls.node[130].veinsmobility posx ETV
vector 651 tls.node[130].veinsmobility posy ETV
vector 652 tls.node[130].veinsmobility speed ETV
544	1995086 2551 6676 7549 485 587 103 0.7870280612511 14.548708639194 375.86004920188 2668.8318551917
543	1997637 2816 6676 7549 485 587 103 -4.5 2.5201907490613 3.929773847381 386.2660869031
542	2000453 2827 6407 7549 484 587 104 0 21.498430294588 1009.6153772368 14146.929665876
541	2003280 3015 6138 7549 483 587 105 512.74188877525 1002.135 84773.513137131 69737839.329515
540	2006295 3024 6138 7549 483 587 105 1024.5909548625 1476.9193548738 131203.19523509 166460098.60232
vector 653 tls.node[130].veinsmobility acceleration ETV
vector 654 tls.node[130].veinsmobility co2emission ETV
vector 655 tls.node[131].veinsmobility posx ETV
vector 656 tls.node[131].veinsmobility posy ETV
209	2009526 9258 1398 7551 183 589 407 0.70605354196593 16.763375726028 847.33443978601 3961.9002292104
208	2018784 9521 1398 7551 183 589 407 -4.5 2.5000114917522 7.5587794355201 391.42526897893
207	2028305 9278 1397 7551 182 589 408 0 24.62306552637 2606.3407324067 35580.821194048
206	2037583 11838 1396 7551 181 589 409 1013.7466471563 1807.8854693873 532467.773481 707043125.88117
205	2049421 11843 1396 7551 181 589 409 894.97577619869 2899.6129761905 819250.87876197 1722897216.7864
vector 657 tls.node[131].veinsmobility speed ETV
vector 658 tls.node[131].veinsmobility acceleration ETV
vector 659 tls.node[131].veinsmobility co2emission ETV
vector 660 tls.node[132].veinsmobility posx ETV
vector 661 tls.node[132].veinsmobility posy ETV
[...]
263	2185548 9659 1448 7573 233 611 379 -4.5 2.5340638133232 9.9188732292214 604.17133524575
262	2195207 9404 1447 7573 232 611 380 0 25.493832801318 3228.7940367118 48899.488455911
261	2204611 11027 1446 7573 231 611 381 788.4259513162 1753.8188545503 482251.66229777 631850308.05162
260	2215638 11017 1446 7573 231 611 381 856.30974623797 2125.7877651024 641442.15325268 1134064628.9612
639	2226655 1145 7533 7576 571 614 44 0.973 8.0436636116835 123.72785399233 496.86846457382
638	2227800 1334 7533 7576 571 614 44 -0.99329581204802 2.3929780219216 12.009935874586 35.713136421636
637	2229134 1291 7532 7576 570 614 45 2.03 14.178792925991 553.08645134329 7228.6160290098
636	2230425 1331 7531 7576 569 614 46 933.16340609052 1140.8916315202 47358.570033141 48977560.910111
635	2231756 1326 7531 7576 569 614 46 1063.4180749563 1435.9608903707 56021.864990189 68828641.778594
vector 685 tls.node[137].veinsmobility posx ETV
vector 686 tls.node[137].veinsmobility posy ETV
vector 687 tls.node[137].veinsmobility speed ETV
vector 688 tls.node[137].veinsmobility acceleration ETV
vector 689 tls.node[137].veinsmobility co2emission ETV
vector 690 tls.node[138].veinsmobility posx ETV
vector 691 tls.node[138].veinsmobility posy ETV
vector 692 tls.node[138].veinsmobility speed ETV
vector 693 tls.node[138].veinsmobility acceleration ETV
vector 694 tls.node[138].veinsmobility co2emission ETV
584	2233594 2910 7477 7587 515 625 111 -0.050458250227522 14.986988605657 501.07160001804 3937.1285956282
583	2236504 3303 7477 7587 515 625 111 -4.5 2.5440907512326 7.2723284785804 348.0779910094
582	2239807 3236 7476 7587 514 625 112 1.8409106282284 26.89521708938 1804.9232259506 35545.354014946
581	2243043 3261 7475 7587 513 625 113 970.09142501713 1560.6955095427 135808.17354138 165950173.77857
580	2246304 3268 7475 7587 513 625 113 1027.0676849717 2132.4035919811 169913.29133126 277714763.99812
vector 695 tls.node[139].veinsmobility posx ETV
vector 696 tls.node[139].veinsmobility posy ETV
vector 697 tls.node[139].veinsmobility speed ETV
vector 698 tls.node[139].veinsmobility acceleration ETV
vector 699 tls.node[139].veinsmobility co2emission ETV
vector 700 tls.node[140].veinsmobility posx ETV
vector 701 tls.node[140].veinsmobility posy ETV
vector 702 tls.node[140].veinsmobility speed ETV
vector 703 tls.node[140].veinsmobility acceleration ETV
vector 704 tls.node[140].veinsmobility co2emission ETV
599	2250084 2624 7493 7593 531 631 101 0.973 15.725815612475 583.87167711818 5266.278352804
598	2252708 2796 7493 7593 531 631 101 -4.5 2.5867001562612 13.163331950008 614.91217746154
597	2255504 2949 7492 7593 530 631 102 1.8398022712674 28.099353184803 1458.4374634816 24977.212496143
596	2258453 2965 7491 7593 529 631 103 877.07238793215 1322.026105224 115754.64939859 132727919.326
595	2261418 2974 7491 7593 529 631 103 992.5540011177 1764.8481241364 142308.80367212 203959335.97681
vector 705 tls.node[141].veinsmobility posx ETV
vector 706 tls.node[141].veinsmobility posy ETV
vector 707 tls.node[141].veinsmobility speed ETV
624	2264537 2179 7516 7595 554 633 80 0.13311224515334 18.161187476798 434.43753471992 3852.5807722025
623	2266716 2357 7516 7595 554 633 80 -4.5 2.5631398265483 26.671660293835 213.73840334385
622	2269073 2339 7515 7595 553 633 81 0.27083867899399 28.851678243871 1531.5704000182 36873.556722123
621	2271412 2369 7514 7595 552 633 82 1014.4569651578 1765.3327811041 100941.2211749 127952336.00607
620	2273781 2367 7514 7595 552 633 82 88.077158068081 1137.4763615901 61944.00232512 57357613.551785
vector 708 tls.node[141].veinsmobility acceleration ETV
vector 709 tls.node[141].veinsmobility co2emission ETV
284	2276259 9344 1471 7596 256 634 379 -0.056632481859129 21.825035926545 1263.9769410067 9001.3886112761
283	2285603 9732 1471 7596 256 634 379 -4.5 2.5515503227478 21.54678322463 462.85578137762
282	2295335 9434 1470 7596 255 634 380 0 30.365601614005 5219.6405874423 122110.57829989
281	2304769 11023 1469 7596 254 634 381 704.1220023424 1786.0197036123 510520.84662758 714634760.09097
280	2315792 11020 1469 7596 254 634 381 960.60690067168 5149.9926288798 935574.95365604 2722797950.7204
vector 710 tls.node[142].veinsmobility posx ETV
vector 711 tls.node[142].veinsmobility posy ETV
vector 712 tls.node[142].veinsmobility speed ETV
vector 713 tls.node[142].veinsmobility acceleration ETV
vector 714 tls.node[142].veinsmobility co2emission ETV
vector 715 tls.node[143].veinsmobility posx ETV
vector 716 tls.node[143].veinsmobility posy ETV
vector 717 tls.node[143].veinsmobility speed ETV
vector 718 tls.node[143].veinsmobility acceleration ETV
vector 719 tls.node[143].veinsmobility co2emission ETV
526	2327324 4398 3741 7606 474 644 171 0.39677223088008 14.461553690594 632.73814834414 4404.4830815753
525	2331722 4813 3741 7606 474 644 171 -4.5 2.500769201084 20.868670931333 358.24577359333
524	2336535 4709 3472 7606 473 644 172 0 22.946865405116 2372.7566819371 48398.268693738
519	2341244 4996 3471 7606 472 644 173 363.9307894292 1245.1372016755 168312.45563477 175120391.14604
518	2346240 4996 3471 7606 472 644 173 939.49962713923 2125.0976349453 243663.27102688 369437450.25369
vector 720 tls.node[144].veinsmobility posx ETV
vector 721 tls.node[144].veinsmobility posy ETV
vector 722 tls.node[144].veinsmobility speed ETV
vector 723 tls.node[144].veinsmobility acceleration ETV
vector 724 tls.node[144].veinsmobility co2emission ETV
564	2351492 3989 7460 7610 498 648 151 -0.69328862752687 18.829943022417 656.54390387048 4965.5029566867
563	2355481 4443 7460 7610 498 648 151 -4.5 2.5990099490853 -13.017232079516 394.48612613978
562	2359924 4390 7459 7610 497 648 152 4.1919381011196 27.988745237218 2964.9784897362 67123.482818848
561	2364314 4418 7458 7610 496 648 153 957.31730624272 1961.9858617163 212007.41146169 307107707.54243
560	2368732 4421 7458 7610 496 648 153 1017.8243383643 2132.4544549241 239870.01238262 399769053.39537
504	2373153 5144 3451 7613 452 651 200 0.47775452282611 12.097978076236 616.50764579786 3322.813000945
503	2378297 5947 3451 7613 452 651 200 -4.5 2.5640214357525 5.3721666468871 410.28847346201
502	2384244 5768 3450 7613 451 651 201 0 24.401367599581 2444.219075614 40245.85753402
501	2390012 5839 3449 7613 450 651 202 806.84857272687 1361.0039996092 229782.12370682 266643036.83054
500	2395851 5831 3449 7613 450 651 202 1055.4874521675 2318.2801496043 395555.5671424 808836669.59695
vector 725 tls.node[145].veinsmobility posx ETV
vector 726 tls.node[145].veinsmobility posy ETV
vector 727 tls.node[145].veinsmobility speed ETV
vector 728 tls.node[145].veinsmobility acceleration ETV
vector 729 tls.node[145].veinsmobility co2emission ETV
vector 730 tls.node[146].veinsmobility posx ETV
vector 731 tls.node[146].veinsmobility posy ETV
vector 732 tls.node[146].veinsmobility speed ETV
vector 733 tls.node[146].veinsmobility acceleration ETV
vector 734 tls.node[146].veinsmobility co2emission ETV
vector 735 tls.node[147].veinsmobility posx ETV
vector 736 tls.node[147].veinsmobility posy ETV
vector 737 tls.node[147].veinsmobility speed ETV
vector 738 tls.node[147].veinsmobility acceleration ETV
vector 739 tls.node[147].veinsmobility co2emission ETV
vector 740 tls.node[148].veinsmobility posx ETV
vector 741 tls.node[148].veinsmobility posy ETV
vector 742 tls.node[148].veinsmobility speed ETV
vector 743 tls.node[148].veinsmobility acceleration ETV
vector 744 tls.node[148].veinsmobility co2emission ETV
vector 745 tls.node[149].veinsmobility posx ETV
vector 746 tls.node[149].veinsmobility posy ETV
vector 747 tls.node[149].veinsmobility speed ETV
vector 748 tls.node[149].veinsmobility acceleration ETV
vector 749 tls.node[149].veinsmobility co2emission ETV
vector 750 tls.node[150].veinsmobility posx ETV
vector 751 tls.node[150].veinsmobility posy ETV
459	2403058 6824 3397 7637 398 675 278 -0.053911230706923 16.849846723042 880.5609406042 5987.9286105239
458	2409882 7322 3397 7637 398 675 278 -4.5 2.5484600754222 9.7850944158773 676.32873521944
457	2417204 7256 3396 7637 397 675 279 0 25.650228716091 2860.7864337834 47776.232875869
456	2424460 8103 3395 7637 396 675 280 806.33382750871 1323.1512446079 303888.83623884 336192961.63379
455	2432563 8100 3395 7637 396 675 280 1207.9412696305 2152.582680325 515253.53783442 984204952.64999
vector 752 tls.node[150].veinsmobility speed ETV
vector 753 tls.node[150].veinsmobility acceleration ETV
vector 754 tls.node[150].veinsmobility co2emission ETV
589	2440823 3813 7480 7642 518 680 163 0.973 11.672096743966 401.05563620062 1883.1806427071
588	2444636 3961 7480 7642 518 680 163 -4.5 2.5600008380832 12.897142148647 336.81442109186
587	2448597 3894 7479 7642 517 680 164 0 16.599028293367 1135.2213203264 15840.371490863
586	2452491 4770 7478 7642 516 680 165 742.94744440939 1701.3248771141 197794.22838528 248372818.27832
585	2457261 4781 7478 7642 516 680 165 2133.0621087469 2255.6278010667 356224.792488 769209008.71872
499	2462042 6027 3444 7644 445 682 238 -1.2601981067298 21.971001445834 965.81719056577 8285.4771083331
498	2468069 6724 3444 7644 445 682 238 -4.5 2.5856783021707 -6.236335914559 665.15464729663
497	2474793 6617 3443 7644 444 682 239 0 32.302124990971 3425.3095500753 71783.101411836
496	2481410 6936 3442 7644 443 682 240 510.32837026032 1538.2171248492 259032.45886496 294951678.41008
495	2488346 6936 3442 7644 443 682 240 962.26558338523 2573.1357154066 431780.74567206 855844891.80461
579	2495282 4567 7473 7646 511 684 174 0.10202959437555 16.885207138518 692.77799201634 4786.9773108118
578	2499849 5209 7473 7646 511 684 174 -4.5 2.588082526857 -12.970328408818 408.68394949376
577	2505058 5054 7472 7646 510 684 175 0 26.785629165593 3141.0907091649 66734.625477166
576	2510112 5081 7471 7646 509 684 176 1060.8740647022 1961.9858617163 244176.52085251 352376863.94838
575	2515193 5081 7471 7646 509 684 176 1017.8243383643 2132.4042349393 278336.48596282 466611825.87526
664	2520274 2319 7556 7646 594 684 91 0.973 10.425089558908 318.96028566058 1804.9946522609
663	2522593 2641 7556 7646 594 684 91 -4.5 2.5785712963669 11.480840975358 409.48556397894
662	2525234 2675 7555 7646 593 684 92 0.00016077544763876 14.637047717706 831.37311443958 9062.2111979975
661	2527909 2687 7554 7646 592 684 93 826.97061834865 1174.0099947106 92285.981754448 92869123.443214
660	2530596 2688 7554 7646 592 684 93 1128.8395901375 1380.4333813317 114637.10396186 141668101.90937
vector 755 tls.node[151].veinsmobility posx ETV
vector 756 tls.node[151].veinsmobility posy ETV
vector 757 tls.node[151].veinsmobility speed ETV
vector 758 tls.node[151].veinsmobility acceleration ETV
vector 759 tls.node[151].veinsmobility co2emission ETV
vector 760 tls.node[152].veinsmobility posx ETV
vector 761 tls.node[152].veinsmobility posy ETV
vector 762 tls.node[152].veinsmobility speed ETV
vector 763 tls.node[152].veinsmobility acceleration ETV
vector 764 tls.node[152].veinsmobility co2emission ETV
vector 765 tls.node[153].veinsmobility posx ETV
vector 766 tls.node[153].veinsmobility posy ETV
vector 767 tls.node[153].veinsmobility speed ETV
429	2533941 7153 3374 7658 375 696 322 -0.33472066240163 19.162210518891 771.24273175833 4874.223081395
428	2541094 6892 3374 7658 375 696 322 -4.5 2.5845548042562 8.2629828953432 492.63304408179
427	2547986 6848 3373 7658 374 696 323 0 27.904764850549 2008.4763108314 35203.187779699
426	2554834 9383 3372 7658 373 696 324 678.03923317684 1241.4663106127 358114.20179185 404309505.84178
425	2564217 9382 3372 7658 373 696 324 1426.6070671152 2542.0666919463 677032.53419505 1435314210.321
vector 768 tls.node[153].veinsmobility acceleration ETV
vector 769 tls.node[153].veinsmobility co2emission ETV
vector 770 tls.node[154].veinsmobility posx ETV
vector 771 tls.node[154].veinsmobility posy ETV
609	2573806 4179 7500 7664 538 702 165 -0.92360645661562 18.749672344664 659.64989795475 5571.5616711349
608	2577985 4477 7500 7664 538 702 165 -4.5 2.5236082123593 -17.737976129221 422.87281954133
607	2582462 4387 7499 7664 537 702 166 0 29.550543201513 2611.720302999 64093.764903104
606	2586849 4826 7498 7664 536 702 167 805.64997266874 2253.3921058994 203254.16159859 269227711.18056
605	2591675 4835 7498 7664 536 702 167 939.51496409302 2132.4161074076 245826.38893747 402512077.30066
vector 772 tls.node[154].veinsmobility speed ETV
vector 773 tls.node[154].veinsmobility acceleration ETV
vector 774 tls.node[154].veinsmobility co2emission ETV
vector 775 tls.node[155].veinsmobility posx ETV
vector 776 tls.node[155].veinsmobility posy ETV
vector 777 tls.node[155].veinsmobility speed ETV
644	2596815 3169 7543 7668 581 706 126 0.18972943031312 19.177676437357 541.11692692212 4426.1012774881
643	2599984 3508 7543 7668 581 706 126 -4.5 2.5747984494083 -2.3865818046776 488.89338145581
642	2603492 3493 7542 7668 580 706 127 0 27.194129069889 1655.4967459011 30648.336966472
641	2606985 3702 7541 7668 579 706 128 600.42730083451 1234.9277131248 114758.72357236 108187651.2397
640	2610687 3702 7541 7668 579 706 128 960.63681203528 1460.3617140324 151364.68598446 182271835.13996
vector 778 tls.node[155].veinsmobility acceleration ETV
vector 779 tls.node[155].veinsmobility co2emission ETV
724	2614500 1581 7609 7671 647 709 63 0.973 14.536024937364 233.74652220746 1625.603281349
723	2616081 1836 7609 7671 647 709 63 -4.5 2.5727189898957 -2.0805964612643 242.71484347858
722	2617917 1848 7608 7671 646 709 64 4.8788538640328 23.987821725416 743.31110029198 10354.538112097
721	2619765 1877 7607 7671 645 709 65 1151.6008522362 1300.8633813319 79362.192022895 97025115.373778
720	2621642 1879 7607 7671 645 709 65 915.8184979242 1460.0855496395 73961.180223458 85489433.642463
vector 780 tls.node[156].veinsmobility posx ETV
vector 781 tls.node[156].veinsmobility posy ETV
vector 782 tls.node[156].veinsmobility speed ETV
vector 783 tls.node[156].veinsmobility acceleration ETV
vector 784 tls.node[156].veinsmobility co2emission ETV
vector 785 tls.node[157].veinsmobility posx ETV
vector 786 tls.node[157].veinsmobility posy ETV
669	2623873 3057 7560 7677 598 715 118 -0.52550551283601 21.016582852007 532.96961417036 4460.7490884435
668	2626930 3463 7560 7677 598 715 118 -4.5 2.5710355418501 11.205313436039 475.76475259072
667	2630393 3440 7559 7677 597 715 119 0.64822490832116 27.309620032444 1674.9469570133 29119.207355806
666	2633833 3465 7558 7677 596 715 120 829.30346339838 1507.9312489661 132920.37428863 151920145.25938
665	2637298 3469 7558 7677 596 715 120 1210.809448859 2132.3859781187 189327.42699895 311991840.93131
vector 787 tls.node[157].veinsmobility speed ETV
vector 788 tls.node[157].veinsmobility acceleration ETV
vector 789 tls.node[157].veinsmobility co2emission ETV
384	2640927 8380 3338 7680 339 718 380 -0.90122830036164 20.465368537196 976.73816158797 6758.7798562114
383	2649307 8109 3338 7680 339 718 380 -4.5 2.5675843473058 8.5312252554482 601.35159518052
382	2657416 8055 3337 7680 338 718 381 0 29.677123816907 2511.8959272599 48741.729333931
381	2665471 11059 3336 7680 337 718 382 656.88294680649 1244.8722124339 427555.85733485 488953062.33804
380	2676530 10845 3336 7680 337 718 382 1060.8110949437 2488.9604262056 771831.5864104 1608293442.4961
509	2687375 6735 3454 7682 455 720 266 -1.5285206716136 22.489786562519 1299.4555847706 13371.415098425
508	2694110 7439 3454 7682 455 720 266 -4.5 2.5998121148208 32.043641573243 682.26819758879
507	2701549 7252 3453 7682 454 720 267 0 34.394779309892 4205.143688432 104803.34940568
506	2708801 7746 3452 7682 453 720 268 581.89472239362 1962.0592265217 322568.68997318 422084560.47925
505	2716547 7724 3452 7682 453 720 268 961.54386171381 2152.744494049 463963.87429747 863021444.38259
vector 790 tls.node[158].veinsmobility posx ETV
vector 791 tls.node[158].veinsmobility posy ETV
vector 792 tls.node[158].veinsmobility speed ETV
434	2724416 7804 3378 7688 379 726 348 -0.61663053063079 22.904953936596 837.15944182304 5363.1657304005
433	2732220 7709 3378 7688 379 726 348 -4.5 2.559142058203 15.168471213009 359.54086477703
432	2739929 7571 3377 7688 378 726 349 0 30.420280755564 2534.1763300044 51470.886069249
431	2747500 10139 3376 7688 377 726 350 1231.1448496593 1963.8410171839 489359.47216333 701530166.75442
430	2757639 9939 3376 7688 377 726 350 1082.9336498102 2149.9748791275 714522.83197786 1474506209.8575
vector 793 tls.node[158].veinsmobility acceleration ETV
vector 794 tls.node[158].veinsmobility co2emission ETV
vector 795 tls.node[159].veinsmobility posx ETV
vector 796 tls.node[159].veinsmobility posy ETV
vector 797 tls.node[159].veinsmobility speed ETV
vector 798 tls.node[159].veinsmobility acceleration ETV
vector 799 tls.node[159].veinsmobility co2emission ETV
vector 800 tls.node[160].veinsmobility posx ETV
vector 801 tls.node[160].veinsmobility posy ETV
vector 802 tls.node[160].veinsmobility speed ETV
vector 803 tls.node[160].veinsmobility acceleration ETV
vector 804 tls.node[160].veinsmobility co2emission ETV
vector 805 tls.node[161].veinsmobility posx ETV
vector 806 tls.node[161].veinsmobility posy ETV
vector 807 tls.node[161].veinsmobility speed ETV
vector 808 tls.node[161].veinsmobility acceleration ETV
vector 809 tls.node[161].veinsmobility co2emission ETV
vector 810 tls.node[162].veinsmobility posx ETV
vector 811 tls.node[162].veinsmobility posy ETV
vector 812 tls.node[162].veinsmobility speed ETV
vector 813 tls.node[162].veinsmobility acceleration ETV
vector 814 tls.node[162].veinsmobility co2emission ETV
494	2768713 7664 3437 7709 438 747 310 -0.32215494171596 20.095265466853 998.34785009907 6744.6377739232
493	2776377 8405 3437 7709 438 747 310 -4.5 2.5804753262782 10.460294927719 577.15133598865
492	2784782 8232 3436 7709 437 747 311 0 28.136349481097 3686.9998747147 67292.259382914
491	2793014 9009 3435 7709 436 747 312 806.42319175528 1704.4229748553 384942.78601052 491248652.53252
490	2802023 9026 3435 7709 436 747 312 1024.0806795127 2152.5898156909 551740.34596773 1027769749.9968
vector 815 tls.node[163].veinsmobility posx ETV
vector 816 tls.node[163].veinsmobility posy ETV
vector 817 tls.node[163].veinsmobility speed ETV
vector 818 tls.node[163].veinsmobility acceleration ETV
vector 819 tls.node[163].veinsmobility co2emission ETV
vector 820 tls.node[164].veinsmobility posx ETV
vector 821 tls.node[164].veinsmobility posy ETV
vector 822 tls.node[164].veinsmobility speed ETV
vector 823 tls.node[165].veinsmobility posx ETV
vector 824 tls.node[165].veinsmobility posy ETV
vector 825 tls.node[164].veinsmobility acceleration ETV
vector 826 tls.node[164].veinsmobility co2emission ETV
vector 827 tls.node[165].veinsmobility speed ETV
vector 828 tls.node[165].veinsmobility acceleration ETV
vector 829 tls.node[165].veinsmobility co2emission ETV
vector 830 tls.node[166].veinsmobility posx ETV
vector 831 tls.node[166].veinsmobility posy ETV
vector 832 tls.node[166].veinsmobility speed ETV
vector 833 tls.node[166].veinsmobility acceleration ETV
vector 834 tls.node[166].veinsmobility co2emission ETV
774	2812073 1761 7666 7732 704 770 67 0.45499707283082 18.797203249894 274.71807312782 2073.2692337852
773	2813834 1942 7666 7732 704 770 67 -4.5 2.5993882277515 11.709961279748 217.91895775909
772	2815776 1967 7665 7732 703 770 68 1.3079237065278 25.731737031621 892.24461782448 13342.216465765
771	2817743 1992 7664 7732 702 770 69 929.97425685126 1241.7711195322 75828.74346648 84315167.123958
770	2819735 1992 7664 7732 702 770 69 1140.2867653272 1768.9853667954 98537.464414461 142874708.61082
759	2821727 2104 7653 7733 691 771 81 0.38342177903843 12.673880988069 271.81961076621 1491.3684024611
758	2823831 2402 7653 7733 691 771 81 -4.5 2.5540204514284 -10.176338023721 208.39593346437
757	2826233 2364 7652 7733 690 771 82 3.8656321805776 22.564824561483 1270.171813507 23426.658607895
756	2828597 2398 7651 7733 689 771 83 340.32902137637 979.31269785446 56657.573100956 42802396.152768
755	2830995 2397 7651 7733 689 771 83 1327.6126562024 2044.956933915 127561.23781216 199281221.676
